WARNING: physical memory size is smaller than virtual memory size.

*** ChampSim Multicore Out-of-Order Simulator ***
Warmup Instructions: 0
Simulation Instructions: 2000000
Number of CPUs: 1
Page size: 4096

Offsets List:
Offset: 1, Metadata: 0
Offset: 2, Metadata: 0
Offset: 3, Metadata: 0
Offset: 4, Metadata: 0
Offset: 5, Metadata: 0
Offset: 6, Metadata: 0
Offset: 8, Metadata: 0
Offset: 9, Metadata: 0
Offset: 10, Metadata: 0
Offset: 12, Metadata: 0
Offset: 15, Metadata: 0
Offset: 16, Metadata: 0
Offset: 18, Metadata: 0
Offset: 20, Metadata: 0
Offset: 24, Metadata: 0
Offset: 25, Metadata: 0
Offset: 27, Metadata: 0
Offset: 30, Metadata: 0
Offset: 32, Metadata: 0
Offset: 36, Metadata: 0
Offset: 40, Metadata: 0
Offset: 45, Metadata: 0
Offset: 48, Metadata: 0
Offset: 50, Metadata: 0
Offset: 54, Metadata: 0
Offset: 60, Metadata: 0
KAIROS Prefetcher Initialise
Off-chip DRAM Size: 4 GiB Channels: 1 Width: 64-bit Data Race: 3200 MT/s
Warmup finished CPU 0 instructions: 0 cycles: 1 cumulative IPC: 0 (Simulation time: 00 hr 00 min 00 sec)
Warmup complete CPU 0 instructions: 0 cycles: 1 cumulative IPC: 0 (Simulation time: 00 hr 00 min 00 sec)
Generated prefetch: 1073600 with offset 1
Generated prefetch: 1073664 with offset 1
Generated prefetch: 1073728 with offset 1
Filled RR
Generated prefetch: 1073792 with offset 1
Generated prefetch: 1073856 with offset 1
Filled RR
Generated prefetch: 1135552 with offset 1
Filled RR
Generated prefetch: 1140608 with offset 1
Generated prefetch: 1144704 with offset 1
Generated prefetch: 1073536 with offset 1
Generated prefetch: 1148800 with offset 1
Generated prefetch: 1152896 with offset 1
Filled RR
Filled RR
Generated prefetch: 1152960 with offset 1
Generated prefetch: 1140672 with offset 1
Generated prefetch: 1144768 with offset 1
Generated prefetch: 1148864 with offset 1
Generated prefetch: 1140736 with offset 1
Generated prefetch: 1153024 with offset 1
Generated prefetch: 1144832 with offset 1
Generated prefetch: 1148928 with offset 1
Generated prefetch: 1153088 with offset 1
Generated prefetch: 1140800 with offset 1
Generated prefetch: 1148992 with offset 1
Generated prefetch: 1144896 with offset 1
Generated prefetch: 1140864 with offset 1
Generated prefetch: 1153152 with offset 1
Generated prefetch: 1144960 with offset 1
Generated prefetch: 1149056 with offset 1
Generated prefetch: 1153216 with offset 1
Generated prefetch: 1140928 with offset 1
Generated prefetch: 1149120 with offset 1
Address 1501 found in RR table
New best score is 1 for offset 5
Generated prefetch: 1145024 with offset 1
Generated prefetch: 1153280 with offset 1
Generated prefetch: 1140992 with offset 1
Generated prefetch: 1145088 with offset 1
Generated prefetch: 1149184 with offset 1
Generated prefetch: 1141056 with offset 1
Generated prefetch: 1153344 with offset 1
Generated prefetch: 1145152 with offset 1
Generated prefetch: 1149248 with offset 1
Generated prefetch: 1153408 with offset 1
Generated prefetch: 1141120 with offset 1
Generated prefetch: 1149312 with offset 1
Generated prefetch: 1145216 with offset 1
Generated prefetch: 1141184 with offset 1
Generated prefetch: 1153472 with offset 1
Generated prefetch: 1145280 with offset 1
Generated prefetch: 1149376 with offset 1
Generated prefetch: 1153536 with offset 1
Generated prefetch: 1141248 with offset 1
Generated prefetch: 1149440 with offset 1
Generated prefetch: 1145344 with offset 1
Generated prefetch: 1153600 with offset 1
Generated prefetch: 1141312 with offset 1
Generated prefetch: 1145408 with offset 1
Generated prefetch: 1149504 with offset 1
Generated prefetch: 1141376 with offset 1
Generated prefetch: 1153664 with offset 1
Generated prefetch: 1145472 with offset 1
Generated prefetch: 1149568 with offset 1
Generated prefetch: 1153728 with offset 1
Generated prefetch: 1141440 with offset 1
Generated prefetch: 1149632 with offset 1
Generated prefetch: 1145536 with offset 1
Generated prefetch: 1141504 with offset 1
Generated prefetch: 1153792 with offset 1
Generated prefetch: 1145600 with offset 1
Generated prefetch: 1149696 with offset 1
Generated prefetch: 1153856 with offset 1
Generated prefetch: 1141568 with offset 1
Generated prefetch: 1149760 with offset 1
Generated prefetch: 1145664 with offset 1
Generated prefetch: 1153920 with offset 1
Generated prefetch: 1141632 with offset 1
Generated prefetch: 1145728 with offset 1
Generated prefetch: 1149824 with offset 1
Generated prefetch: 1141696 with offset 1
Generated prefetch: 1153984 with offset 1
Generated prefetch: 1145792 with offset 1
Generated prefetch: 1149888 with offset 1
Generated prefetch: 1154048 with offset 1
Generated prefetch: 1141760 with offset 1
Generated prefetch: 1149952 with offset 1
Generated prefetch: 1145856 with offset 1
Generated prefetch: 1141824 with offset 1
Generated prefetch: 1154112 with offset 1
Generated prefetch: 1145920 with offset 1
Generated prefetch: 1150016 with offset 1
Generated prefetch: 1154176 with offset 1
Generated prefetch: 1141888 with offset 1
Generated prefetch: 1150080 with offset 1
Generated prefetch: 1145984 with offset 1
Generated prefetch: 1154240 with offset 1
Generated prefetch: 1141952 with offset 1
Generated prefetch: 1146048 with offset 1
Generated prefetch: 1150144 with offset 1
Generated prefetch: 1142016 with offset 1
Generated prefetch: 1154304 with offset 1
Generated prefetch: 1146112 with offset 1
Generated prefetch: 1150208 with offset 1
Generated prefetch: 1154368 with offset 1
Generated prefetch: 1142080 with offset 1
Generated prefetch: 1150272 with offset 1
Generated prefetch: 1146176 with offset 1
Generated prefetch: 1142144 with offset 1
Generated prefetch: 1154432 with offset 1
Generated prefetch: 1146240 with offset 1
Generated prefetch: 1150336 with offset 1
Generated prefetch: 1154496 with offset 1
Generated prefetch: 1142208 with offset 1
Generated prefetch: 1150400 with offset 1
Generated prefetch: 1146304 with offset 1
Generated prefetch: 1154560 with offset 1
Generated prefetch: 1142272 with offset 1
Generated prefetch: 1146368 with offset 1
Generated prefetch: 1150464 with offset 1
Generated prefetch: 1142336 with offset 1
Generated prefetch: 1154624 with offset 1
Generated prefetch: 1146432 with offset 1
Generated prefetch: 1150528 with offset 1
Generated prefetch: 1154688 with offset 1
Generated prefetch: 1142400 with offset 1
Generated prefetch: 1150592 with offset 1
Generated prefetch: 1146496 with offset 1
Generated prefetch: 1142464 with offset 1
Generated prefetch: 1154752 with offset 1
Generated prefetch: 1146560 with offset 1
Generated prefetch: 1150656 with offset 1
Generated prefetch: 1154816 with offset 1
Generated prefetch: 1142528 with offset 1
Generated prefetch: 1150720 with offset 1
Generated prefetch: 1146624 with offset 1
Generated prefetch: 1154880 with offset 1
Generated prefetch: 1142592 with offset 1
Generated prefetch: 1146688 with offset 1
Generated prefetch: 1150784 with offset 1
Generated prefetch: 1142656 with offset 1
Generated prefetch: 1154944 with offset 1
Generated prefetch: 1146752 with offset 1
Generated prefetch: 1150848 with offset 1
Generated prefetch: 1155008 with offset 1
Generated prefetch: 1142720 with offset 1
Generated prefetch: 1150912 with offset 1
Generated prefetch: 1146816 with offset 1
Prefetch not issued - Page crossed
Prefetch not issued - Page crossed
Prefetch not issued - Page crossed
Prefetch not issued - Page crossed
Generated prefetch: 1155136 with offset 1
Generated prefetch: 1155200 with offset 1
Generated prefetch: 1155264 with offset 1
Generated prefetch: 1159232 with offset 1
Generated prefetch: 1159296 with offset 1
Generated prefetch: 1159360 with offset 1
Generated prefetch: 1163328 with offset 1
Generated prefetch: 1163392 with offset 1
Generated prefetch: 1163456 with offset 1
Filled RR
Generated prefetch: 1167424 with offset 1
Generated prefetch: 1167488 with offset 1
Generated prefetch: 1167552 with offset 1
Filled RR
Filled RR
Filled RR
Generated prefetch: 1155328 with offset 1
Generated prefetch: 1159424 with offset 1
Generated prefetch: 1163520 with offset 1
Generated prefetch: 1167616 with offset 1
Generated prefetch: 1159488 with offset 1
Generated prefetch: 1155392 with offset 1
Generated prefetch: 1167680 with offset 1
Generated prefetch: 1163584 with offset 1
Generated prefetch: 1155456 with offset 1
Generated prefetch: 1159552 with offset 1
Generated prefetch: 1163648 with offset 1
Generated prefetch: 1167744 with offset 1
Generated prefetch: 1155520 with offset 1
Generated prefetch: 1159616 with offset 1
Generated prefetch: 1167808 with offset 1
Generated prefetch: 1163712 with offset 1
Generated prefetch: 1159680 with offset 1
Generated prefetch: 1155584 with offset 1
Generated prefetch: 1167872 with offset 1
Generated prefetch: 1163776 with offset 1
Generated prefetch: 1155648 with offset 1
Generated prefetch: 1159744 with offset 1
Generated prefetch: 1163840 with offset 1
Generated prefetch: 1167936 with offset 1
Generated prefetch: 1159808 with offset 1
Generated prefetch: 1155712 with offset 1
Generated prefetch: 1168000 with offset 1
Generated prefetch: 1163904 with offset 1
Generated prefetch: 1155776 with offset 1
Address 1730 found in RR table
Generated prefetch: 1159872 with offset 1
Generated prefetch: 1163968 with offset 1
Generated prefetch: 1168064 with offset 1
Generated prefetch: 1155840 with offset 1
Generated prefetch: 1159936 with offset 1
Generated prefetch: 1168128 with offset 1
Generated prefetch: 1164032 with offset 1
Generated prefetch: 1160000 with offset 1
Generated prefetch: 1155904 with offset 1
Generated prefetch: 1168192 with offset 1
Generated prefetch: 1164096 with offset 1
Generated prefetch: 1155968 with offset 1
Generated prefetch: 1160064 with offset 1
Generated prefetch: 1164160 with offset 1
Generated prefetch: 1168256 with offset 1
Generated prefetch: 1160128 with offset 1
Generated prefetch: 1156032 with offset 1
Generated prefetch: 1168320 with offset 1
Generated prefetch: 1164224 with offset 1
Generated prefetch: 1156096 with offset 1
Generated prefetch: 1160192 with offset 1
Generated prefetch: 1164288 with offset 1
Generated prefetch: 1168384 with offset 1
Generated prefetch: 1156160 with offset 1
Generated prefetch: 1160256 with offset 1
Generated prefetch: 1168448 with offset 1
Generated prefetch: 1164352 with offset 1
Generated prefetch: 1160320 with offset 1
Generated prefetch: 1156224 with offset 1
Generated prefetch: 1168512 with offset 1
Address 1794 found in RR table
Generated prefetch: 1164416 with offset 1
Address 1666 found in RR table
Generated prefetch: 1156288 with offset 1
Generated prefetch: 1160384 with offset 1
Generated prefetch: 1164480 with offset 1
Generated prefetch: 1168576 with offset 1
Generated prefetch: 1160448 with offset 1
Generated prefetch: 1156352 with offset 1
Generated prefetch: 1168640 with offset 1
Generated prefetch: 1164544 with offset 1
Generated prefetch: 1156416 with offset 1
Generated prefetch: 1160512 with offset 1
Generated prefetch: 1164608 with offset 1
Generated prefetch: 1168704 with offset 1
Generated prefetch: 1156480 with offset 1
Generated prefetch: 1160576 with offset 1
Generated prefetch: 1168768 with offset 1
Generated prefetch: 1164672 with offset 1
Generated prefetch: 1160640 with offset 1
Generated prefetch: 1156544 with offset 1
Generated prefetch: 1168832 with offset 1
Generated prefetch: 1164736 with offset 1
Generated prefetch: 1156608 with offset 1
Generated prefetch: 1160704 with offset 1
Generated prefetch: 1164800 with offset 1
Generated prefetch: 1168896 with offset 1
Generated prefetch: 1160768 with offset 1
Generated prefetch: 1156672 with offset 1
Generated prefetch: 1168960 with offset 1
Generated prefetch: 1164864 with offset 1
Generated prefetch: 1156736 with offset 1
Generated prefetch: 1160832 with offset 1
Generated prefetch: 1164928 with offset 1
Generated prefetch: 1169024 with offset 1
Generated prefetch: 1156800 with offset 1
Generated prefetch: 1160896 with offset 1
Generated prefetch: 1169088 with offset 1
Generated prefetch: 1164992 with offset 1
Generated prefetch: 1160960 with offset 1
Generated prefetch: 1156864 with offset 1
Generated prefetch: 1169152 with offset 1
Generated prefetch: 1165056 with offset 1
Generated prefetch: 1073920 with offset 1
Generated prefetch: 1135424 with offset 1
Generated prefetch: 1135488 with offset 1
Filled RR
Filled RR
Filled RR
Filled RR
Generated prefetch: 1073472 with offset 1
Filled RR
Generated prefetch: 1136640 with offset 1
Filled RR
Generated prefetch: 1172672 with offset 1
Filled RR
Generated prefetch: 1156928 with offset 1
Generated prefetch: 1161024 with offset 1
Generated prefetch: 1165120 with offset 1
Generated prefetch: 1169216 with offset 1
Generated prefetch: 1161088 with offset 1
Generated prefetch: 1156992 with offset 1
Generated prefetch: 1169280 with offset 1
Generated prefetch: 1165184 with offset 1
Generated prefetch: 1157056 with offset 1
Generated prefetch: 1161152 with offset 1
Generated prefetch: 1165248 with offset 1
Generated prefetch: 1169344 with offset 1
Generated prefetch: 1157120 with offset 1
Generated prefetch: 1161216 with offset 1
Generated prefetch: 1169408 with offset 1
Generated prefetch: 1165312 with offset 1
Generated prefetch: 1161280 with offset 1
Generated prefetch: 1157184 with offset 1
Generated prefetch: 1169472 with offset 1
Generated prefetch: 1165376 with offset 1
Generated prefetch: 1157248 with offset 1
Generated prefetch: 1161344 with offset 1
Generated prefetch: 1165440 with offset 1
Generated prefetch: 1169536 with offset 1
Generated prefetch: 1161408 with offset 1
Generated prefetch: 1157312 with offset 1
Generated prefetch: 1169600 with offset 1
Generated prefetch: 1165504 with offset 1
Generated prefetch: 1157376 with offset 1
Generated prefetch: 1161472 with offset 1
Generated prefetch: 1165568 with offset 1
Generated prefetch: 1169664 with offset 1
Generated prefetch: 1157440 with offset 1
Generated prefetch: 1161536 with offset 1
Generated prefetch: 1169728 with offset 1
Generated prefetch: 1165632 with offset 1
Generated prefetch: 1161600 with offset 1
Generated prefetch: 1157504 with offset 1
Generated prefetch: 1169792 with offset 1
Generated prefetch: 1165696 with offset 1
Address 1666 found in RR table
Generated prefetch: 1157568 with offset 1
Generated prefetch: 1161664 with offset 1
Generated prefetch: 1165760 with offset 1
Generated prefetch: 1169856 with offset 1
Generated prefetch: 1161728 with offset 1
Generated prefetch: 1157632 with offset 1
Generated prefetch: 1169920 with offset 1
Generated prefetch: 1165824 with offset 1
Generated prefetch: 1157696 with offset 1
Generated prefetch: 1161792 with offset 1
Generated prefetch: 1165888 with offset 1
Generated prefetch: 1169984 with offset 1
Generated prefetch: 1157760 with offset 1
Generated prefetch: 1161856 with offset 1
Generated prefetch: 1170048 with offset 1
Generated prefetch: 1165952 with offset 1
Generated prefetch: 1161920 with offset 1
Address 1691 found in RR table
New best score is 2 for offset 15
Generated prefetch: 1157824 with offset 1
Generated prefetch: 1170112 with offset 1
Generated prefetch: 1166016 with offset 1
Generated prefetch: 1157888 with offset 1
Generated prefetch: 1161984 with offset 1
Generated prefetch: 1166080 with offset 1
Generated prefetch: 1170176 with offset 1
Generated prefetch: 1162048 with offset 1
Generated prefetch: 1157952 with offset 1
Generated prefetch: 1170240 with offset 1
Generated prefetch: 1166144 with offset 1
Generated prefetch: 1158016 with offset 1
Generated prefetch: 1162112 with offset 1
Generated prefetch: 1166208 with offset 1
Generated prefetch: 1170304 with offset 1
Generated prefetch: 1158080 with offset 1
Generated prefetch: 1162176 with offset 1
Generated prefetch: 1170368 with offset 1
Generated prefetch: 1166272 with offset 1
Generated prefetch: 1162240 with offset 1
Generated prefetch: 1158144 with offset 1
Generated prefetch: 1170432 with offset 1
Generated prefetch: 1166336 with offset 1
Generated prefetch: 1158208 with offset 1
Generated prefetch: 1162304 with offset 1
Generated prefetch: 1166400 with offset 1
Generated prefetch: 1170496 with offset 1
Generated prefetch: 1162368 with offset 1
Generated prefetch: 1158272 with offset 1
Generated prefetch: 1170560 with offset 1
Generated prefetch: 1166464 with offset 1
Generated prefetch: 1158336 with offset 1
Generated prefetch: 1162432 with offset 1
Generated prefetch: 1166528 with offset 1
Generated prefetch: 1170624 with offset 1
Generated prefetch: 1158400 with offset 1
Generated prefetch: 1162496 with offset 1
Generated prefetch: 1170688 with offset 1
Generated prefetch: 1166592 with offset 1
Address 1730 found in RR table
Generated prefetch: 1162560 with offset 1
Generated prefetch: 1158464 with offset 1
Generated prefetch: 1170752 with offset 1
Generated prefetch: 1166656 with offset 1
Generated prefetch: 1158528 with offset 1
Generated prefetch: 1162624 with offset 1
Generated prefetch: 1166720 with offset 1
Generated prefetch: 1170816 with offset 1
Generated prefetch: 1162688 with offset 1
Generated prefetch: 1158592 with offset 1
Generated prefetch: 1170880 with offset 1
Generated prefetch: 1166784 with offset 1
Generated prefetch: 1158656 with offset 1
Generated prefetch: 1162752 with offset 1
Generated prefetch: 1166848 with offset 1
Generated prefetch: 1170944 with offset 1
Generated prefetch: 1158720 with offset 1
Generated prefetch: 1162816 with offset 1
Generated prefetch: 1171008 with offset 1
Generated prefetch: 1166912 with offset 1
Address 1755 found in RR table
Generated prefetch: 1162880 with offset 1
Generated prefetch: 1158784 with offset 1
Generated prefetch: 1171072 with offset 1
Generated prefetch: 1166976 with offset 1
Generated prefetch: 1158848 with offset 1
Generated prefetch: 1162944 with offset 1
Generated prefetch: 1167040 with offset 1
Generated prefetch: 1171136 with offset 1
Generated prefetch: 1163008 with offset 1
Generated prefetch: 1158912 with offset 1
Generated prefetch: 1171200 with offset 1
Generated prefetch: 1167104 with offset 1
Generated prefetch: 1158976 with offset 1
Generated prefetch: 1163072 with offset 1
Generated prefetch: 1167168 with offset 1
Generated prefetch: 1171264 with offset 1
Generated prefetch: 1159040 with offset 1
Generated prefetch: 1163136 with offset 1
Generated prefetch: 1171328 with offset 1
Generated prefetch: 1167232 with offset 1
Generated prefetch: 1163200 with offset 1
Generated prefetch: 1159104 with offset 1
Generated prefetch: 1171392 with offset 1
Generated prefetch: 1167296 with offset 1
Prefetch not issued - Page crossed
Prefetch not issued - Page crossed
Prefetch not issued - Page crossed
Prefetch not issued - Page crossed
Generated prefetch: 1175680 with offset 1
Generated prefetch: 1175616 with offset 1
Generated prefetch: 1179712 with offset 1
Generated prefetch: 1179776 with offset 1
Generated prefetch: 1183808 with offset 1
Generated prefetch: 1183872 with offset 1
Generated prefetch: 1175744 with offset 1
Generated prefetch: 1179840 with offset 1
Generated prefetch: 1183936 with offset 1
Filled RR
Filled RR
Filled RR
Generated prefetch: 1192000 with offset 1
Generated prefetch: 1192064 with offset 1
Generated prefetch: 1192128 with offset 1
Filled RR
Generated prefetch: 1175808 with offset 1
Generated prefetch: 1192192 with offset 1
Generated prefetch: 1179904 with offset 1
Generated prefetch: 1184000 with offset 1
Generated prefetch: 1192256 with offset 1
Generated prefetch: 1175872 with offset 1
Generated prefetch: 1184064 with offset 1
Generated prefetch: 1179968 with offset 1
Generated prefetch: 1175936 with offset 1
Generated prefetch: 1192320 with offset 1
Generated prefetch: 1180032 with offset 1
Generated prefetch: 1184128 with offset 1
Generated prefetch: 1192384 with offset 1
Generated prefetch: 1176000 with offset 1
Generated prefetch: 1184192 with offset 1
Generated prefetch: 1180096 with offset 1
Generated prefetch: 1192448 with offset 1
Generated prefetch: 1176064 with offset 1
Generated prefetch: 1180160 with offset 1
Generated prefetch: 1184256 with offset 1
Generated prefetch: 1176128 with offset 1
Generated prefetch: 1192512 with offset 1
Generated prefetch: 1180224 with offset 1
Generated prefetch: 1184320 with offset 1
Generated prefetch: 1192576 with offset 1
Generated prefetch: 1176192 with offset 1
Generated prefetch: 1184384 with offset 1
Generated prefetch: 1180288 with offset 1
Generated prefetch: 1176256 with offset 1
Generated prefetch: 1192640 with offset 1
Generated prefetch: 1180352 with offset 1
Generated prefetch: 1184448 with offset 1
Generated prefetch: 1192704 with offset 1
Generated prefetch: 1176320 with offset 1
Generated prefetch: 1184512 with offset 1
Generated prefetch: 1180416 with offset 1
Generated prefetch: 1192768 with offset 1
Generated prefetch: 1176384 with offset 1
Generated prefetch: 1180480 with offset 1
Generated prefetch: 1184576 with offset 1
Generated prefetch: 1176448 with offset 1
Generated prefetch: 1192832 with offset 1
Generated prefetch: 1180544 with offset 1
Generated prefetch: 1184640 with offset 1
Generated prefetch: 1192896 with offset 1
Generated prefetch: 1176512 with offset 1
Generated prefetch: 1184704 with offset 1
Generated prefetch: 1180608 with offset 1
Generated prefetch: 1176576 with offset 1
Generated prefetch: 1192960 with offset 1
Generated prefetch: 1180672 with offset 1
Generated prefetch: 1184768 with offset 1
Generated prefetch: 1193024 with offset 1
Generated prefetch: 1176640 with offset 1
Generated prefetch: 1184832 with offset 1
Generated prefetch: 1180736 with offset 1
Generated prefetch: 1193088 with offset 1
Address 1986 found in RR table
New best score is 3 for offset 15
Generated prefetch: 1176704 with offset 1
Generated prefetch: 1180800 with offset 1
Generated prefetch: 1184896 with offset 1
Generated prefetch: 1176768 with offset 1
Generated prefetch: 1193152 with offset 1
Generated prefetch: 1180864 with offset 1
Generated prefetch: 1184960 with offset 1
Generated prefetch: 1193216 with offset 1
Generated prefetch: 1176832 with offset 1
Generated prefetch: 1185024 with offset 1
Generated prefetch: 1180928 with offset 1
Generated prefetch: 1176896 with offset 1
Generated prefetch: 1193280 with offset 1
Generated prefetch: 1180992 with offset 1
Generated prefetch: 1185088 with offset 1
Generated prefetch: 1193344 with offset 1
Generated prefetch: 1176960 with offset 1
Generated prefetch: 1185152 with offset 1
Generated prefetch: 1181056 with offset 1
Generated prefetch: 1193408 with offset 1
Generated prefetch: 1177024 with offset 1
Generated prefetch: 1181120 with offset 1
Generated prefetch: 1185216 with offset 1
Generated prefetch: 1177088 with offset 1
Generated prefetch: 1193472 with offset 1
Generated prefetch: 1181184 with offset 1
Generated prefetch: 1185280 with offset 1
Generated prefetch: 1193536 with offset 1
Generated prefetch: 1177152 with offset 1
Generated prefetch: 1185344 with offset 1
Generated prefetch: 1181248 with offset 1
Generated prefetch: 1177216 with offset 1
Generated prefetch: 1193600 with offset 1
Generated prefetch: 1181312 with offset 1
Generated prefetch: 1185408 with offset 1
Generated prefetch: 1193664 with offset 1
Generated prefetch: 1177280 with offset 1
Generated prefetch: 1185472 with offset 1
Generated prefetch: 1181376 with offset 1
Generated prefetch: 1193728 with offset 1
Generated prefetch: 1177344 with offset 1
Generated prefetch: 1181440 with offset 1
Generated prefetch: 1185536 with offset 1
Generated prefetch: 1177408 with offset 1
Generated prefetch: 1193792 with offset 1
Generated prefetch: 1181504 with offset 1
Generated prefetch: 1185600 with offset 1
Generated prefetch: 1193856 with offset 1
Generated prefetch: 1177472 with offset 1
Generated prefetch: 1185664 with offset 1
Generated prefetch: 1181568 with offset 1
Generated prefetch: 1177536 with offset 1
Generated prefetch: 1193920 with offset 1
Generated prefetch: 1181632 with offset 1
Generated prefetch: 1185728 with offset 1
Generated prefetch: 1193984 with offset 1
Generated prefetch: 1177600 with offset 1
Generated prefetch: 1185792 with offset 1
Generated prefetch: 1181696 with offset 1
Address 2242 found in RR table
Generated prefetch: 1194048 with offset 1
Generated prefetch: 1177664 with offset 1
Generated prefetch: 1181760 with offset 1
Generated prefetch: 1185856 with offset 1
Generated prefetch: 1177728 with offset 1
Generated prefetch: 1194112 with offset 1
Generated prefetch: 1181824 with offset 1
Generated prefetch: 1185920 with offset 1
Generated prefetch: 1194176 with offset 1
Generated prefetch: 1177792 with offset 1
Generated prefetch: 1185984 with offset 1
Generated prefetch: 1181888 with offset 1
Generated prefetch: 1177856 with offset 1
Generated prefetch: 1194240 with offset 1
Generated prefetch: 1181952 with offset 1
Generated prefetch: 1186048 with offset 1
Generated prefetch: 1194304 with offset 1
Generated prefetch: 1177920 with offset 1
Generated prefetch: 1186112 with offset 1
Generated prefetch: 1182016 with offset 1
Generated prefetch: 1194368 with offset 1
Generated prefetch: 1177984 with offset 1
Generated prefetch: 1182080 with offset 1
Generated prefetch: 1186176 with offset 1
Generated prefetch: 1178048 with offset 1
Generated prefetch: 1194432 with offset 1
Generated prefetch: 1182144 with offset 1
Generated prefetch: 1186240 with offset 1
Generated prefetch: 1194496 with offset 1
Generated prefetch: 1178112 with offset 1
Generated prefetch: 1186304 with offset 1
Generated prefetch: 1182208 with offset 1
Generated prefetch: 1178176 with offset 1
Generated prefetch: 1194560 with offset 1
Generated prefetch: 1182272 with offset 1
Generated prefetch: 1186368 with offset 1
Generated prefetch: 1194624 with offset 1
Generated prefetch: 1178240 with offset 1
Generated prefetch: 1186432 with offset 1
Generated prefetch: 1182336 with offset 1
Generated prefetch: 1194688 with offset 1
Generated prefetch: 1178304 with offset 1
Generated prefetch: 1182400 with offset 1
Generated prefetch: 1186496 with offset 1
Generated prefetch: 1178368 with offset 1
Generated prefetch: 1194752 with offset 1
Generated prefetch: 1182464 with offset 1
Generated prefetch: 1186560 with offset 1
Generated prefetch: 1194816 with offset 1
Generated prefetch: 1178432 with offset 1
Generated prefetch: 1186624 with offset 1
Generated prefetch: 1182528 with offset 1
Generated prefetch: 1178496 with offset 1
Generated prefetch: 1194880 with offset 1
Generated prefetch: 1182592 with offset 1
Generated prefetch: 1186688 with offset 1
Generated prefetch: 1194944 with offset 1
Generated prefetch: 1178560 with offset 1
Generated prefetch: 1186752 with offset 1
Generated prefetch: 1182656 with offset 1
Generated prefetch: 1195008 with offset 1
Generated prefetch: 1178624 with offset 1
Generated prefetch: 1182720 with offset 1
Generated prefetch: 1186816 with offset 1
Generated prefetch: 1178688 with offset 1
Generated prefetch: 1195072 with offset 1
Generated prefetch: 1182784 with offset 1
Generated prefetch: 1186880 with offset 1
Generated prefetch: 1195136 with offset 1
Generated prefetch: 1178752 with offset 1
Generated prefetch: 1186944 with offset 1
Generated prefetch: 1182848 with offset 1
Generated prefetch: 1178816 with offset 1
Generated prefetch: 1195200 with offset 1
Generated prefetch: 1182912 with offset 1
Generated prefetch: 1187008 with offset 1
Generated prefetch: 1195264 with offset 1
Generated prefetch: 1178880 with offset 1
Generated prefetch: 1187072 with offset 1
Generated prefetch: 1182976 with offset 1
Generated prefetch: 1195328 with offset 1
Generated prefetch: 1178944 with offset 1
Generated prefetch: 1183040 with offset 1
Generated prefetch: 1187136 with offset 1
Generated prefetch: 1179008 with offset 1
Generated prefetch: 1195392 with offset 1
Generated prefetch: 1183104 with offset 1
Generated prefetch: 1187200 with offset 1
Generated prefetch: 1195456 with offset 1
Generated prefetch: 1179072 with offset 1
Generated prefetch: 1187264 with offset 1
Generated prefetch: 1183168 with offset 1
Generated prefetch: 1179136 with offset 1
Generated prefetch: 1195520 with offset 1
Generated prefetch: 1183232 with offset 1
Generated prefetch: 1187328 with offset 1
Generated prefetch: 1195584 with offset 1
Generated prefetch: 1179200 with offset 1
Generated prefetch: 1187392 with offset 1
Generated prefetch: 1183296 with offset 1
Generated prefetch: 1195648 with offset 1
Generated prefetch: 1179264 with offset 1
Generated prefetch: 1183360 with offset 1
Generated prefetch: 1187456 with offset 1
Generated prefetch: 1179328 with offset 1
Generated prefetch: 1195712 with offset 1
Generated prefetch: 1183424 with offset 1
Generated prefetch: 1187520 with offset 1
Generated prefetch: 1195776 with offset 1
Generated prefetch: 1179392 with offset 1
Generated prefetch: 1187584 with offset 1
Generated prefetch: 1183488 with offset 1
Generated prefetch: 1179456 with offset 1
Generated prefetch: 1195840 with offset 1
Generated prefetch: 1183552 with offset 1
Generated prefetch: 1187648 with offset 1
Generated prefetch: 1195904 with offset 1
Generated prefetch: 1179520 with offset 1
Generated prefetch: 1187712 with offset 1
Generated prefetch: 1183616 with offset 1
Generated prefetch: 1195968 with offset 1
Generated prefetch: 1179584 with offset 1
Generated prefetch: 1183680 with offset 1
Generated prefetch: 1187776 with offset 1
Prefetch not issued - Page crossed
Prefetch not issued - Page crossed
Prefetch not issued - Page crossed
Prefetch not issued - Page crossed
Generated prefetch: 1196096 with offset 1
Generated prefetch: 1200192 with offset 1
Generated prefetch: 1204288 with offset 1
Generated prefetch: 1208384 with offset 1
Generated prefetch: 1200256 with offset 1
Generated prefetch: 1196160 with offset 1
Generated prefetch: 1208448 with offset 1
Generated prefetch: 1204352 with offset 1
Generated prefetch: 1196224 with offset 1
Generated prefetch: 1200320 with offset 1
Generated prefetch: 1204416 with offset 1
Generated prefetch: 1208512 with offset 1
Generated prefetch: 1196288 with offset 1
Generated prefetch: 1200384 with offset 1
Generated prefetch: 1208576 with offset 1
Generated prefetch: 1204480 with offset 1
Generated prefetch: 1200448 with offset 1
Generated prefetch: 1196352 with offset 1
Generated prefetch: 1208640 with offset 1
Generated prefetch: 1204544 with offset 1
Generated prefetch: 1196416 with offset 1
Generated prefetch: 1200512 with offset 1
Generated prefetch: 1204608 with offset 1
Generated prefetch: 1208704 with offset 1
Generated prefetch: 1200576 with offset 1
Generated prefetch: 1196480 with offset 1
Generated prefetch: 1208768 with offset 1
Generated prefetch: 1204672 with offset 1
Generated prefetch: 1196544 with offset 1
Generated prefetch: 1200640 with offset 1
Generated prefetch: 1204736 with offset 1
Generated prefetch: 1208832 with offset 1
Generated prefetch: 1196608 with offset 1
Generated prefetch: 1200704 with offset 1
Generated prefetch: 1208896 with offset 1
Generated prefetch: 1204800 with offset 1
Generated prefetch: 1200768 with offset 1
Generated prefetch: 1196672 with offset 1
Generated prefetch: 1208960 with offset 1
Generated prefetch: 1204864 with offset 1
Generated prefetch: 1196736 with offset 1
Generated prefetch: 1200832 with offset 1
Generated prefetch: 1204928 with offset 1
Generated prefetch: 1209024 with offset 1
Generated prefetch: 1200896 with offset 1
Generated prefetch: 1196800 with offset 1
Generated prefetch: 1209088 with offset 1
Generated prefetch: 1204992 with offset 1
Generated prefetch: 1196864 with offset 1
Generated prefetch: 1200960 with offset 1
Generated prefetch: 1205056 with offset 1
Generated prefetch: 1209152 with offset 1
Generated prefetch: 1196928 with offset 1
Generated prefetch: 1201024 with offset 1
Generated prefetch: 1209216 with offset 1
Generated prefetch: 1205120 with offset 1
Generated prefetch: 1201088 with offset 1
Generated prefetch: 1196992 with offset 1
Generated prefetch: 1209280 with offset 1
Generated prefetch: 1205184 with offset 1
Generated prefetch: 1197056 with offset 1
Generated prefetch: 1201152 with offset 1
Generated prefetch: 1205248 with offset 1
Generated prefetch: 1209344 with offset 1
Generated prefetch: 1201216 with offset 1
Generated prefetch: 1197120 with offset 1
Generated prefetch: 1209408 with offset 1
Generated prefetch: 1205312 with offset 1
Generated prefetch: 1197184 with offset 1
Generated prefetch: 1201280 with offset 1
Generated prefetch: 1205376 with offset 1
Generated prefetch: 1209472 with offset 1
Generated prefetch: 1197248 with offset 1
Generated prefetch: 1201344 with offset 1
Generated prefetch: 1209536 with offset 1
Generated prefetch: 1205440 with offset 1
Generated prefetch: 1201408 with offset 1
Generated prefetch: 1197312 with offset 1
Generated prefetch: 1209600 with offset 1
Generated prefetch: 1205504 with offset 1
Generated prefetch: 1197376 with offset 1
Generated prefetch: 1201472 with offset 1
Generated prefetch: 1205568 with offset 1
Generated prefetch: 1209664 with offset 1
Generated prefetch: 1201536 with offset 1
Generated prefetch: 1197440 with offset 1
Generated prefetch: 1209728 with offset 1
Generated prefetch: 1205632 with offset 1
Generated prefetch: 1197504 with offset 1
Generated prefetch: 1201600 with offset 1
Generated prefetch: 1205696 with offset 1
Generated prefetch: 1209792 with offset 1
Generated prefetch: 1197568 with offset 1
Generated prefetch: 1201664 with offset 1
Generated prefetch: 1209856 with offset 1
Generated prefetch: 1205760 with offset 1
Generated prefetch: 1201728 with offset 1
Generated prefetch: 1197632 with offset 1
Generated prefetch: 1209920 with offset 1
Generated prefetch: 1205824 with offset 1
Generated prefetch: 1197696 with offset 1
Generated prefetch: 1201792 with offset 1
Generated prefetch: 1205888 with offset 1
Generated prefetch: 1209984 with offset 1
Generated prefetch: 1201856 with offset 1
Generated prefetch: 1197760 with offset 1
Generated prefetch: 1210048 with offset 1
Generated prefetch: 1205952 with offset 1
Generated prefetch: 1197824 with offset 1
Generated prefetch: 1201920 with offset 1
Generated prefetch: 1206016 with offset 1
Generated prefetch: 1210112 with offset 1
Generated prefetch: 1197888 with offset 1
Generated prefetch: 1201984 with offset 1
Generated prefetch: 1210176 with offset 1
Generated prefetch: 1206080 with offset 1
Generated prefetch: 1202048 with offset 1
Generated prefetch: 1197952 with offset 1
Generated prefetch: 1210240 with offset 1
Generated prefetch: 1206144 with offset 1
Generated prefetch: 1198016 with offset 1
Generated prefetch: 1202112 with offset 1
Generated prefetch: 1206208 with offset 1
Generated prefetch: 1210304 with offset 1
Generated prefetch: 1202176 with offset 1
Generated prefetch: 1198080 with offset 1
Generated prefetch: 1210368 with offset 1
Generated prefetch: 1206272 with offset 1
Generated prefetch: 1198144 with offset 1
Generated prefetch: 1202240 with offset 1
Generated prefetch: 1206336 with offset 1
Generated prefetch: 1210432 with offset 1
Generated prefetch: 1198208 with offset 1
Generated prefetch: 1202304 with offset 1
Generated prefetch: 1210496 with offset 1
Generated prefetch: 1206400 with offset 1
Generated prefetch: 1202368 with offset 1
Generated prefetch: 1198272 with offset 1
Generated prefetch: 1210560 with offset 1
Generated prefetch: 1206464 with offset 1
Generated prefetch: 1198336 with offset 1
Generated prefetch: 1202432 with offset 1
Generated prefetch: 1206528 with offset 1
Generated prefetch: 1210624 with offset 1
Generated prefetch: 1202496 with offset 1
Generated prefetch: 1198400 with offset 1
Generated prefetch: 1210688 with offset 1
Generated prefetch: 1206592 with offset 1
Generated prefetch: 1198464 with offset 1
Generated prefetch: 1202560 with offset 1
Generated prefetch: 1206656 with offset 1
Generated prefetch: 1210752 with offset 1
Generated prefetch: 1198528 with offset 1
Generated prefetch: 1202624 with offset 1
Generated prefetch: 1210816 with offset 1
Generated prefetch: 1206720 with offset 1
Generated prefetch: 1202688 with offset 1
Generated prefetch: 1198592 with offset 1
Generated prefetch: 1210880 with offset 1
Generated prefetch: 1206784 with offset 1
Generated prefetch: 1198656 with offset 1
Generated prefetch: 1202752 with offset 1
Generated prefetch: 1206848 with offset 1
Generated prefetch: 1210944 with offset 1
Generated prefetch: 1202816 with offset 1
Generated prefetch: 1198720 with offset 1
Generated prefetch: 1211008 with offset 1
Generated prefetch: 1206912 with offset 1
Generated prefetch: 1198784 with offset 1
Generated prefetch: 1202880 with offset 1
Generated prefetch: 1206976 with offset 1
Generated prefetch: 1211072 with offset 1
Generated prefetch: 1198848 with offset 1
Generated prefetch: 1202944 with offset 1
Generated prefetch: 1211136 with offset 1
Generated prefetch: 1207040 with offset 1
Generated prefetch: 1203008 with offset 1
Generated prefetch: 1198912 with offset 1
Generated prefetch: 1211200 with offset 1
Generated prefetch: 1207104 with offset 1
Generated prefetch: 1198976 with offset 1
Generated prefetch: 1203072 with offset 1
Generated prefetch: 1207168 with offset 1
Generated prefetch: 1211264 with offset 1
Generated prefetch: 1203136 with offset 1
Generated prefetch: 1199040 with offset 1
Generated prefetch: 1211328 with offset 1
Generated prefetch: 1207232 with offset 1
Generated prefetch: 1199104 with offset 1
Generated prefetch: 1203200 with offset 1
Generated prefetch: 1207296 with offset 1
Generated prefetch: 1211392 with offset 1
Generated prefetch: 1199168 with offset 1
Generated prefetch: 1203264 with offset 1
Generated prefetch: 1211456 with offset 1
Generated prefetch: 1207360 with offset 1
Generated prefetch: 1203328 with offset 1
Generated prefetch: 1199232 with offset 1
Generated prefetch: 1211520 with offset 1
Generated prefetch: 1207424 with offset 1
Generated prefetch: 1199296 with offset 1
Generated prefetch: 1203392 with offset 1
Generated prefetch: 1207488 with offset 1
Generated prefetch: 1211584 with offset 1
Generated prefetch: 1203456 with offset 1
Generated prefetch: 1199360 with offset 1
Generated prefetch: 1211648 with offset 1
Generated prefetch: 1207552 with offset 1
Generated prefetch: 1199424 with offset 1
Generated prefetch: 1203520 with offset 1
Generated prefetch: 1207616 with offset 1
Generated prefetch: 1211712 with offset 1
Generated prefetch: 1199488 with offset 1
Generated prefetch: 1203584 with offset 1
Generated prefetch: 1211776 with offset 1
Generated prefetch: 1207680 with offset 1
Generated prefetch: 1203648 with offset 1
Generated prefetch: 1199552 with offset 1
Generated prefetch: 1211840 with offset 1
Generated prefetch: 1207744 with offset 1
Generated prefetch: 1199616 with offset 1
Generated prefetch: 1203712 with offset 1
Generated prefetch: 1207808 with offset 1
Generated prefetch: 1211904 with offset 1
Generated prefetch: 1203776 with offset 1
Generated prefetch: 1199680 with offset 1
Generated prefetch: 1211968 with offset 1
Generated prefetch: 1207872 with offset 1
Generated prefetch: 1199744 with offset 1
Generated prefetch: 1203840 with offset 1
Generated prefetch: 1207936 with offset 1
Generated prefetch: 1212032 with offset 1
Generated prefetch: 1199808 with offset 1
Generated prefetch: 1203904 with offset 1
Generated prefetch: 1212096 with offset 1
Generated prefetch: 1208000 with offset 1
Generated prefetch: 1203968 with offset 1
Generated prefetch: 1199872 with offset 1
Generated prefetch: 1212160 with offset 1
Generated prefetch: 1208064 with offset 1
Generated prefetch: 1199936 with offset 1
Generated prefetch: 1204032 with offset 1
Generated prefetch: 1208128 with offset 1
Generated prefetch: 1212224 with offset 1
Generated prefetch: 1204096 with offset 1
Generated prefetch: 1200000 with offset 1
Generated prefetch: 1212288 with offset 1
Generated prefetch: 1208192 with offset 1
Generated prefetch: 1200064 with offset 1
Generated prefetch: 1204160 with offset 1
Generated prefetch: 1208256 with offset 1
Generated prefetch: 1212352 with offset 1
Prefetch not issued - Page crossed
Prefetch not issued - Page crossed
Prefetch not issued - Page crossed
Prefetch not issued - Page crossed
Generated prefetch: 1212544 with offset 1
Generated prefetch: 1212480 with offset 1
Generated prefetch: 1216576 with offset 1
Generated prefetch: 1216640 with offset 1
Generated prefetch: 1220672 with offset 1
Generated prefetch: 1220736 with offset 1
Generated prefetch: 1224768 with offset 1
Generated prefetch: 1224832 with offset 1
Generated prefetch: 1212608 with offset 1
Generated prefetch: 1216704 with offset 1
Generated prefetch: 1220800 with offset 1
Generated prefetch: 1224896 with offset 1
Generated prefetch: 1216768 with offset 1
Generated prefetch: 1212672 with offset 1
Generated prefetch: 1224960 with offset 1
Generated prefetch: 1220864 with offset 1
Generated prefetch: 1216832 with offset 1
Generated prefetch: 1212736 with offset 1
Generated prefetch: 1220928 with offset 1
Generated prefetch: 1225024 with offset 1
Generated prefetch: 1212800 with offset 1
Generated prefetch: 1216896 with offset 1
Generated prefetch: 1220992 with offset 1
Generated prefetch: 1225088 with offset 1
Generated prefetch: 1216960 with offset 1
Generated prefetch: 1212864 with offset 1
Generated prefetch: 1225152 with offset 1
Generated prefetch: 1221056 with offset 1
Generated prefetch: 1212928 with offset 1
Generated prefetch: 1217024 with offset 1
Generated prefetch: 1221120 with offset 1
Generated prefetch: 1225216 with offset 1
Generated prefetch: 1217088 with offset 1
Generated prefetch: 1212992 with offset 1
Generated prefetch: 1225280 with offset 1
Generated prefetch: 1221184 with offset 1
Generated prefetch: 1217152 with offset 1
Generated prefetch: 1213056 with offset 1
Generated prefetch: 1221248 with offset 1
Generated prefetch: 1225344 with offset 1
Generated prefetch: 1213120 with offset 1
Generated prefetch: 1217216 with offset 1
Generated prefetch: 1221312 with offset 1
Generated prefetch: 1225408 with offset 1
Generated prefetch: 1217280 with offset 1
Generated prefetch: 1213184 with offset 1
Generated prefetch: 1225472 with offset 1
Generated prefetch: 1221376 with offset 1
Generated prefetch: 1213248 with offset 1
Generated prefetch: 1217344 with offset 1
Generated prefetch: 1221440 with offset 1
Generated prefetch: 1225536 with offset 1
Generated prefetch: 1217408 with offset 1
Generated prefetch: 1213312 with offset 1
Generated prefetch: 1225600 with offset 1
Generated prefetch: 1221504 with offset 1
Generated prefetch: 1217472 with offset 1
Generated prefetch: 1213376 with offset 1
Generated prefetch: 1221568 with offset 1
Generated prefetch: 1225664 with offset 1
Generated prefetch: 1213440 with offset 1
Generated prefetch: 1217536 with offset 1
Generated prefetch: 1221632 with offset 1
Generated prefetch: 1225728 with offset 1
Generated prefetch: 1217600 with offset 1
Generated prefetch: 1213504 with offset 1
Generated prefetch: 1225792 with offset 1
Generated prefetch: 1221696 with offset 1
Generated prefetch: 1213568 with offset 1
Generated prefetch: 1217664 with offset 1
Generated prefetch: 1221760 with offset 1
Generated prefetch: 1225856 with offset 1
Generated prefetch: 1217728 with offset 1
Generated prefetch: 1213632 with offset 1
Generated prefetch: 1225920 with offset 1
Generated prefetch: 1221824 with offset 1
Generated prefetch: 1217792 with offset 1
Generated prefetch: 1213696 with offset 1
Generated prefetch: 1221888 with offset 1
Generated prefetch: 1225984 with offset 1
Generated prefetch: 1213760 with offset 1
Generated prefetch: 1217856 with offset 1
Generated prefetch: 1221952 with offset 1
Generated prefetch: 1226048 with offset 1
Generated prefetch: 1217920 with offset 1
Generated prefetch: 1213824 with offset 1
Generated prefetch: 1226112 with offset 1
Generated prefetch: 1222016 with offset 1
Generated prefetch: 1213888 with offset 1
Generated prefetch: 1217984 with offset 1
Generated prefetch: 1222080 with offset 1
Generated prefetch: 1226176 with offset 1
Generated prefetch: 1218048 with offset 1
Generated prefetch: 1213952 with offset 1
Generated prefetch: 1226240 with offset 1
Generated prefetch: 1222144 with offset 1
Generated prefetch: 1218112 with offset 1
Generated prefetch: 1214016 with offset 1
Generated prefetch: 1222208 with offset 1
Generated prefetch: 1226304 with offset 1
Generated prefetch: 1214080 with offset 1
Generated prefetch: 1218176 with offset 1
Generated prefetch: 1222272 with offset 1
Generated prefetch: 1226368 with offset 1
Generated prefetch: 1218240 with offset 1
Generated prefetch: 1214144 with offset 1
Generated prefetch: 1226432 with offset 1
Generated prefetch: 1222336 with offset 1
Generated prefetch: 1214208 with offset 1
Generated prefetch: 1218304 with offset 1
Generated prefetch: 1222400 with offset 1
Generated prefetch: 1226496 with offset 1
Generated prefetch: 1218368 with offset 1
Generated prefetch: 1214272 with offset 1
Generated prefetch: 1226560 with offset 1
Generated prefetch: 1222464 with offset 1
Generated prefetch: 1218432 with offset 1
Generated prefetch: 1214336 with offset 1
Generated prefetch: 1222528 with offset 1
Generated prefetch: 1226624 with offset 1
Generated prefetch: 1214400 with offset 1
Generated prefetch: 1218496 with offset 1
Generated prefetch: 1222592 with offset 1
Generated prefetch: 1226688 with offset 1
Generated prefetch: 1218560 with offset 1
Generated prefetch: 1214464 with offset 1
Generated prefetch: 1226752 with offset 1
Generated prefetch: 1222656 with offset 1
Generated prefetch: 1214528 with offset 1
Generated prefetch: 1218624 with offset 1
Generated prefetch: 1222720 with offset 1
Generated prefetch: 1226816 with offset 1
Generated prefetch: 1218688 with offset 1
Generated prefetch: 1214592 with offset 1
Generated prefetch: 1226880 with offset 1
Generated prefetch: 1222784 with offset 1
Generated prefetch: 1218752 with offset 1
Generated prefetch: 1214656 with offset 1
Generated prefetch: 1222848 with offset 1
Generated prefetch: 1226944 with offset 1
Generated prefetch: 1214720 with offset 1
Generated prefetch: 1218816 with offset 1
Generated prefetch: 1222912 with offset 1
Generated prefetch: 1227008 with offset 1
Generated prefetch: 1218880 with offset 1
Generated prefetch: 1214784 with offset 1
Generated prefetch: 1227072 with offset 1
Generated prefetch: 1222976 with offset 1
Generated prefetch: 1214848 with offset 1
Generated prefetch: 1218944 with offset 1
Generated prefetch: 1223040 with offset 1
Generated prefetch: 1227136 with offset 1
Generated prefetch: 1219008 with offset 1
Generated prefetch: 1214912 with offset 1
Generated prefetch: 1227200 with offset 1
Generated prefetch: 1223104 with offset 1
Generated prefetch: 1219072 with offset 1
Generated prefetch: 1214976 with offset 1
Generated prefetch: 1223168 with offset 1
Generated prefetch: 1227264 with offset 1
Generated prefetch: 1215040 with offset 1
Generated prefetch: 1219136 with offset 1
Generated prefetch: 1223232 with offset 1
Generated prefetch: 1227328 with offset 1
Generated prefetch: 1219200 with offset 1
Generated prefetch: 1215104 with offset 1
Generated prefetch: 1227392 with offset 1
Generated prefetch: 1223296 with offset 1
Generated prefetch: 1215168 with offset 1
Generated prefetch: 1219264 with offset 1
Generated prefetch: 1223360 with offset 1
Generated prefetch: 1227456 with offset 1
Generated prefetch: 1219328 with offset 1
Generated prefetch: 1215232 with offset 1
Generated prefetch: 1227520 with offset 1
Generated prefetch: 1223424 with offset 1
Generated prefetch: 1219392 with offset 1
Generated prefetch: 1215296 with offset 1
Generated prefetch: 1223488 with offset 1
Generated prefetch: 1227584 with offset 1
Generated prefetch: 1215360 with offset 1
Generated prefetch: 1219456 with offset 1
Generated prefetch: 1223552 with offset 1
Generated prefetch: 1227648 with offset 1
Generated prefetch: 1219520 with offset 1
Generated prefetch: 1215424 with offset 1
Generated prefetch: 1227712 with offset 1
Generated prefetch: 1223616 with offset 1
Generated prefetch: 1215488 with offset 1
Generated prefetch: 1219584 with offset 1
Generated prefetch: 1223680 with offset 1
Generated prefetch: 1227776 with offset 1
Generated prefetch: 1219648 with offset 1
Generated prefetch: 1215552 with offset 1
Generated prefetch: 1227840 with offset 1
Generated prefetch: 1223744 with offset 1
Generated prefetch: 1219712 with offset 1
Generated prefetch: 1215616 with offset 1
Generated prefetch: 1223808 with offset 1
Generated prefetch: 1227904 with offset 1
Generated prefetch: 1215680 with offset 1
Generated prefetch: 1219776 with offset 1
Generated prefetch: 1223872 with offset 1
Generated prefetch: 1227968 with offset 1
Generated prefetch: 1219840 with offset 1
Generated prefetch: 1215744 with offset 1
Generated prefetch: 1228032 with offset 1
Generated prefetch: 1223936 with offset 1
Generated prefetch: 1215808 with offset 1
Generated prefetch: 1219904 with offset 1
Generated prefetch: 1224000 with offset 1
Generated prefetch: 1228096 with offset 1
Generated prefetch: 1219968 with offset 1
Generated prefetch: 1215872 with offset 1
Generated prefetch: 1228160 with offset 1
Generated prefetch: 1224064 with offset 1
Generated prefetch: 1220032 with offset 1
Generated prefetch: 1215936 with offset 1
Generated prefetch: 1224128 with offset 1
Generated prefetch: 1228224 with offset 1
Generated prefetch: 1216000 with offset 1
Generated prefetch: 1220096 with offset 1
Generated prefetch: 1224192 with offset 1
Generated prefetch: 1228288 with offset 1
Generated prefetch: 1220160 with offset 1
Generated prefetch: 1216064 with offset 1
Generated prefetch: 1228352 with offset 1
Generated prefetch: 1224256 with offset 1
Generated prefetch: 1216128 with offset 1
Generated prefetch: 1220224 with offset 1
Generated prefetch: 1224320 with offset 1
Generated prefetch: 1228416 with offset 1
Generated prefetch: 1220288 with offset 1
Generated prefetch: 1216192 with offset 1
Generated prefetch: 1228480 with offset 1
Generated prefetch: 1224384 with offset 1
Generated prefetch: 1220352 with offset 1
Generated prefetch: 1216256 with offset 1
Generated prefetch: 1224448 with offset 1
Generated prefetch: 1228544 with offset 1
Generated prefetch: 1216320 with offset 1
Generated prefetch: 1220416 with offset 1
Generated prefetch: 1224512 with offset 1
Generated prefetch: 1228608 with offset 1
Generated prefetch: 1220480 with offset 1
Generated prefetch: 1216384 with offset 1
Generated prefetch: 1228672 with offset 1
Generated prefetch: 1224576 with offset 1
Generated prefetch: 1216448 with offset 1
Generated prefetch: 1220544 with offset 1
Generated prefetch: 1224640 with offset 1
Generated prefetch: 1228736 with offset 1
Prefetch not issued - Page crossed
Prefetch not issued - Page crossed
Prefetch not issued - Page crossed
Prefetch not issued - Page crossed
Generated prefetch: 1228928 with offset 1
Generated prefetch: 1233024 with offset 1
Generated prefetch: 1228864 with offset 1
Generated prefetch: 1232960 with offset 1
Generated prefetch: 1237056 with offset 1
Generated prefetch: 1237120 with offset 1
Generated prefetch: 1241152 with offset 1
Generated prefetch: 1241216 with offset 1
Generated prefetch: 1228992 with offset 1
Generated prefetch: 1233088 with offset 1
Generated prefetch: 1241280 with offset 1
Generated prefetch: 1237184 with offset 1
Generated prefetch: 1233152 with offset 1
Generated prefetch: 1229056 with offset 1
Generated prefetch: 1237248 with offset 1
Generated prefetch: 1241344 with offset 1
Generated prefetch: 1229120 with offset 1
Generated prefetch: 1233216 with offset 1
Generated prefetch: 1241408 with offset 1
Generated prefetch: 1237312 with offset 1
Generated prefetch: 1229184 with offset 1
Generated prefetch: 1233280 with offset 1
Generated prefetch: 1237376 with offset 1
Generated prefetch: 1241472 with offset 1
Generated prefetch: 1233344 with offset 1
Generated prefetch: 1229248 with offset 1
Generated prefetch: 1237440 with offset 1
Generated prefetch: 1241536 with offset 1
Generated prefetch: 1229312 with offset 1
Generated prefetch: 1233408 with offset 1
Generated prefetch: 1241600 with offset 1
Generated prefetch: 1237504 with offset 1
Generated prefetch: 1233472 with offset 1
Generated prefetch: 1229376 with offset 1
Generated prefetch: 1237568 with offset 1
Generated prefetch: 1241664 with offset 1
Generated prefetch: 1229440 with offset 1
Generated prefetch: 1233536 with offset 1
Generated prefetch: 1241728 with offset 1
Generated prefetch: 1237632 with offset 1
Generated prefetch: 1229504 with offset 1
Generated prefetch: 1233600 with offset 1
Generated prefetch: 1237696 with offset 1
Generated prefetch: 1241792 with offset 1
Generated prefetch: 1233664 with offset 1
Generated prefetch: 1229568 with offset 1
Generated prefetch: 1237760 with offset 1
Generated prefetch: 1241856 with offset 1
Generated prefetch: 1229632 with offset 1
Generated prefetch: 1233728 with offset 1
Generated prefetch: 1241920 with offset 1
Generated prefetch: 1237824 with offset 1
Generated prefetch: 1233792 with offset 1
Generated prefetch: 1229696 with offset 1
Generated prefetch: 1237888 with offset 1
Generated prefetch: 1241984 with offset 1
Generated prefetch: 1229760 with offset 1
Generated prefetch: 1233856 with offset 1
Generated prefetch: 1242048 with offset 1
Generated prefetch: 1237952 with offset 1
Generated prefetch: 1229824 with offset 1
Generated prefetch: 1233920 with offset 1
Generated prefetch: 1238016 with offset 1
Generated prefetch: 1242112 with offset 1
Generated prefetch: 1233984 with offset 1
Generated prefetch: 1229888 with offset 1
Generated prefetch: 1238080 with offset 1
Generated prefetch: 1242176 with offset 1
Generated prefetch: 1229952 with offset 1
Generated prefetch: 1234048 with offset 1
Generated prefetch: 1242240 with offset 1
Generated prefetch: 1238144 with offset 1
Generated prefetch: 1234112 with offset 1
Generated prefetch: 1230016 with offset 1
Generated prefetch: 1238208 with offset 1
Generated prefetch: 1242304 with offset 1
Generated prefetch: 1230080 with offset 1
Generated prefetch: 1234176 with offset 1
Generated prefetch: 1242368 with offset 1
Generated prefetch: 1238272 with offset 1
Generated prefetch: 1230144 with offset 1
Generated prefetch: 1234240 with offset 1
Generated prefetch: 1238336 with offset 1
Generated prefetch: 1242432 with offset 1
Generated prefetch: 1234304 with offset 1
Generated prefetch: 1230208 with offset 1
Generated prefetch: 1238400 with offset 1
Generated prefetch: 1242496 with offset 1
Generated prefetch: 1230272 with offset 1
Generated prefetch: 1234368 with offset 1
Generated prefetch: 1242560 with offset 1
Generated prefetch: 1238464 with offset 1
Generated prefetch: 1234432 with offset 1
Generated prefetch: 1230336 with offset 1
Generated prefetch: 1238528 with offset 1
Generated prefetch: 1242624 with offset 1
Generated prefetch: 1230400 with offset 1
Generated prefetch: 1234496 with offset 1
Generated prefetch: 1242688 with offset 1
Generated prefetch: 1238592 with offset 1
Generated prefetch: 1230464 with offset 1
Generated prefetch: 1234560 with offset 1
Generated prefetch: 1238656 with offset 1
Generated prefetch: 1242752 with offset 1
Generated prefetch: 1234624 with offset 1
Generated prefetch: 1230528 with offset 1
Generated prefetch: 1238720 with offset 1
Generated prefetch: 1242816 with offset 1
Generated prefetch: 1230592 with offset 1
Generated prefetch: 1234688 with offset 1
Generated prefetch: 1242880 with offset 1
Generated prefetch: 1238784 with offset 1
Generated prefetch: 1234752 with offset 1
Generated prefetch: 1230656 with offset 1
Generated prefetch: 1238848 with offset 1
Generated prefetch: 1242944 with offset 1
Generated prefetch: 1230720 with offset 1
Generated prefetch: 1234816 with offset 1
Generated prefetch: 1243008 with offset 1
Generated prefetch: 1238912 with offset 1
Generated prefetch: 1230784 with offset 1
Generated prefetch: 1234880 with offset 1
Generated prefetch: 1238976 with offset 1
Generated prefetch: 1243072 with offset 1
Generated prefetch: 1234944 with offset 1
Generated prefetch: 1230848 with offset 1
Generated prefetch: 1239040 with offset 1
Generated prefetch: 1243136 with offset 1
Generated prefetch: 1230912 with offset 1
Generated prefetch: 1235008 with offset 1
Generated prefetch: 1243200 with offset 1
Generated prefetch: 1239104 with offset 1
Generated prefetch: 1235072 with offset 1
Generated prefetch: 1230976 with offset 1
Generated prefetch: 1239168 with offset 1
Generated prefetch: 1243264 with offset 1
Generated prefetch: 1231040 with offset 1
Generated prefetch: 1235136 with offset 1
Generated prefetch: 1243328 with offset 1
Generated prefetch: 1239232 with offset 1
Generated prefetch: 1231104 with offset 1
Generated prefetch: 1235200 with offset 1
Generated prefetch: 1239296 with offset 1
Generated prefetch: 1243392 with offset 1
Generated prefetch: 1235264 with offset 1
Generated prefetch: 1231168 with offset 1
Generated prefetch: 1239360 with offset 1
Generated prefetch: 1243456 with offset 1
Generated prefetch: 1231232 with offset 1
Generated prefetch: 1235328 with offset 1
Generated prefetch: 1243520 with offset 1
Generated prefetch: 1239424 with offset 1
Generated prefetch: 1235392 with offset 1
Generated prefetch: 1231296 with offset 1
Generated prefetch: 1239488 with offset 1
Generated prefetch: 1243584 with offset 1
Generated prefetch: 1231360 with offset 1
Generated prefetch: 1235456 with offset 1
Generated prefetch: 1243648 with offset 1
Generated prefetch: 1239552 with offset 1
Generated prefetch: 1231424 with offset 1
Generated prefetch: 1235520 with offset 1
Generated prefetch: 1239616 with offset 1
Generated prefetch: 1243712 with offset 1
Generated prefetch: 1235584 with offset 1
Generated prefetch: 1231488 with offset 1
Generated prefetch: 1239680 with offset 1
Generated prefetch: 1243776 with offset 1
Generated prefetch: 1231552 with offset 1
Generated prefetch: 1235648 with offset 1
Generated prefetch: 1243840 with offset 1
Generated prefetch: 1239744 with offset 1
Generated prefetch: 1235712 with offset 1
Generated prefetch: 1231616 with offset 1
Generated prefetch: 1239808 with offset 1
Generated prefetch: 1243904 with offset 1
Generated prefetch: 1231680 with offset 1
Generated prefetch: 1235776 with offset 1
Generated prefetch: 1243968 with offset 1
Generated prefetch: 1239872 with offset 1
Generated prefetch: 1231744 with offset 1
Generated prefetch: 1235840 with offset 1
Generated prefetch: 1239936 with offset 1
Generated prefetch: 1244032 with offset 1
Generated prefetch: 1235904 with offset 1
Generated prefetch: 1231808 with offset 1
Generated prefetch: 1240000 with offset 1
Generated prefetch: 1244096 with offset 1
Generated prefetch: 1231872 with offset 1
Generated prefetch: 1235968 with offset 1
Generated prefetch: 1244160 with offset 1
Generated prefetch: 1240064 with offset 1
Generated prefetch: 1236032 with offset 1
Generated prefetch: 1231936 with offset 1
Generated prefetch: 1240128 with offset 1
Generated prefetch: 1244224 with offset 1
Generated prefetch: 1232000 with offset 1
Generated prefetch: 1236096 with offset 1
Generated prefetch: 1244288 with offset 1
Generated prefetch: 1240192 with offset 1
Generated prefetch: 1232064 with offset 1
Generated prefetch: 1236160 with offset 1
Generated prefetch: 1240256 with offset 1
Generated prefetch: 1244352 with offset 1
Generated prefetch: 1236224 with offset 1
Generated prefetch: 1232128 with offset 1
Generated prefetch: 1240320 with offset 1
Generated prefetch: 1244416 with offset 1
Generated prefetch: 1232192 with offset 1
Generated prefetch: 1236288 with offset 1
Generated prefetch: 1244480 with offset 1
Generated prefetch: 1240384 with offset 1
Generated prefetch: 1236352 with offset 1
Generated prefetch: 1232256 with offset 1
Generated prefetch: 1240448 with offset 1
Generated prefetch: 1244544 with offset 1
Generated prefetch: 1232320 with offset 1
Generated prefetch: 1236416 with offset 1
Generated prefetch: 1244608 with offset 1
Generated prefetch: 1240512 with offset 1
Generated prefetch: 1232384 with offset 1
Generated prefetch: 1236480 with offset 1
Generated prefetch: 1240576 with offset 1
Generated prefetch: 1244672 with offset 1
Generated prefetch: 1236544 with offset 1
Generated prefetch: 1232448 with offset 1
Generated prefetch: 1240640 with offset 1
Generated prefetch: 1244736 with offset 1
Generated prefetch: 1232512 with offset 1
Generated prefetch: 1236608 with offset 1
Generated prefetch: 1244800 with offset 1
Generated prefetch: 1240704 with offset 1
Generated prefetch: 1236672 with offset 1
Generated prefetch: 1232576 with offset 1
Generated prefetch: 1240768 with offset 1
Generated prefetch: 1244864 with offset 1
Generated prefetch: 1232640 with offset 1
Generated prefetch: 1236736 with offset 1
Generated prefetch: 1244928 with offset 1
Generated prefetch: 1240832 with offset 1
Generated prefetch: 1232704 with offset 1
Generated prefetch: 1236800 with offset 1
Generated prefetch: 1240896 with offset 1
Generated prefetch: 1244992 with offset 1
Generated prefetch: 1236864 with offset 1
Generated prefetch: 1232768 with offset 1
Generated prefetch: 1240960 with offset 1
Generated prefetch: 1245056 with offset 1
Generated prefetch: 1232832 with offset 1
Generated prefetch: 1236928 with offset 1
Generated prefetch: 1245120 with offset 1
Generated prefetch: 1241024 with offset 1
Prefetch not issued - Page crossed
Prefetch not issued - Page crossed
Prefetch not issued - Page crossed
Prefetch not issued - Page crossed
Generated prefetch: 1245312 with offset 1
Generated prefetch: 1249408 with offset 1
Generated prefetch: 1253504 with offset 1
Generated prefetch: 1245248 with offset 1
Generated prefetch: 1249344 with offset 1
Generated prefetch: 1253440 with offset 1
Generated prefetch: 1257536 with offset 1
Generated prefetch: 1257600 with offset 1
Generated prefetch: 1249472 with offset 1
Generated prefetch: 1245376 with offset 1
Generated prefetch: 1257664 with offset 1
Generated prefetch: 1253568 with offset 1
Generated prefetch: 1245440 with offset 1
Generated prefetch: 1249536 with offset 1
Generated prefetch: 1253632 with offset 1
Generated prefetch: 1257728 with offset 1
Generated prefetch: 1249600 with offset 1
Generated prefetch: 1245504 with offset 1
Generated prefetch: 1257792 with offset 1
Generated prefetch: 1253696 with offset 1
Generated prefetch: 1245568 with offset 1
Generated prefetch: 1249664 with offset 1
Generated prefetch: 1253760 with offset 1
Generated prefetch: 1257856 with offset 1
Generated prefetch: 1245632 with offset 1
Generated prefetch: 1249728 with offset 1
Generated prefetch: 1257920 with offset 1
Generated prefetch: 1253824 with offset 1
Generated prefetch: 1249792 with offset 1
Generated prefetch: 1245696 with offset 1
Generated prefetch: 1257984 with offset 1
Generated prefetch: 1253888 with offset 1
Generated prefetch: 1245760 with offset 1
Generated prefetch: 1249856 with offset 1
Generated prefetch: 1253952 with offset 1
Generated prefetch: 1258048 with offset 1
Generated prefetch: 1249920 with offset 1
Generated prefetch: 1245824 with offset 1
Generated prefetch: 1258112 with offset 1
Generated prefetch: 1254016 with offset 1
Generated prefetch: 1245888 with offset 1
Generated prefetch: 1249984 with offset 1
Generated prefetch: 1254080 with offset 1
Generated prefetch: 1258176 with offset 1
Generated prefetch: 1245952 with offset 1
Generated prefetch: 1250048 with offset 1
Generated prefetch: 1258240 with offset 1
Generated prefetch: 1254144 with offset 1
Generated prefetch: 1250112 with offset 1
Generated prefetch: 1246016 with offset 1
Generated prefetch: 1258304 with offset 1
Generated prefetch: 1254208 with offset 1
Generated prefetch: 1246080 with offset 1
Generated prefetch: 1250176 with offset 1
Generated prefetch: 1254272 with offset 1
Generated prefetch: 1258368 with offset 1
Generated prefetch: 1250240 with offset 1
Generated prefetch: 1246144 with offset 1
Generated prefetch: 1258432 with offset 1
Generated prefetch: 1254336 with offset 1
Generated prefetch: 1246208 with offset 1
Generated prefetch: 1250304 with offset 1
Generated prefetch: 1254400 with offset 1
Generated prefetch: 1258496 with offset 1
Generated prefetch: 1246272 with offset 1
Generated prefetch: 1250368 with offset 1
Generated prefetch: 1258560 with offset 1
Generated prefetch: 1254464 with offset 1
Generated prefetch: 1250432 with offset 1
Generated prefetch: 1246336 with offset 1
Generated prefetch: 1258624 with offset 1
Generated prefetch: 1254528 with offset 1
Generated prefetch: 1246400 with offset 1
Generated prefetch: 1250496 with offset 1
Generated prefetch: 1254592 with offset 1
Generated prefetch: 1258688 with offset 1
Generated prefetch: 1250560 with offset 1
Generated prefetch: 1246464 with offset 1
Generated prefetch: 1258752 with offset 1
Generated prefetch: 1254656 with offset 1
Generated prefetch: 1246528 with offset 1
Generated prefetch: 1250624 with offset 1
Generated prefetch: 1254720 with offset 1
Generated prefetch: 1258816 with offset 1
Generated prefetch: 1246592 with offset 1
Generated prefetch: 1250688 with offset 1
Generated prefetch: 1258880 with offset 1
Generated prefetch: 1254784 with offset 1
Generated prefetch: 1250752 with offset 1
Generated prefetch: 1246656 with offset 1
Generated prefetch: 1258944 with offset 1
Generated prefetch: 1254848 with offset 1
Generated prefetch: 1246720 with offset 1
Generated prefetch: 1250816 with offset 1
Generated prefetch: 1254912 with offset 1
Generated prefetch: 1259008 with offset 1
Generated prefetch: 1250880 with offset 1
Generated prefetch: 1246784 with offset 1
Generated prefetch: 1259072 with offset 1
Generated prefetch: 1254976 with offset 1
Generated prefetch: 1246848 with offset 1
Generated prefetch: 1250944 with offset 1
Generated prefetch: 1255040 with offset 1
Generated prefetch: 1259136 with offset 1
Generated prefetch: 1246912 with offset 1
Generated prefetch: 1251008 with offset 1
Generated prefetch: 1259200 with offset 1
Generated prefetch: 1255104 with offset 1
Generated prefetch: 1251072 with offset 1
Generated prefetch: 1246976 with offset 1
Generated prefetch: 1259264 with offset 1
Generated prefetch: 1255168 with offset 1
Generated prefetch: 1247040 with offset 1
Generated prefetch: 1251136 with offset 1
Generated prefetch: 1255232 with offset 1
Generated prefetch: 1259328 with offset 1
Generated prefetch: 1251200 with offset 1
Generated prefetch: 1247104 with offset 1
Generated prefetch: 1259392 with offset 1
Generated prefetch: 1255296 with offset 1
Generated prefetch: 1247168 with offset 1
Generated prefetch: 1251264 with offset 1
Generated prefetch: 1255360 with offset 1
Generated prefetch: 1259456 with offset 1
Generated prefetch: 1247232 with offset 1
Generated prefetch: 1251328 with offset 1
Generated prefetch: 1259520 with offset 1
Generated prefetch: 1255424 with offset 1
Generated prefetch: 1251392 with offset 1
Generated prefetch: 1247296 with offset 1
Generated prefetch: 1259584 with offset 1
Generated prefetch: 1255488 with offset 1
Generated prefetch: 1247360 with offset 1
Generated prefetch: 1251456 with offset 1
Generated prefetch: 1255552 with offset 1
Generated prefetch: 1259648 with offset 1
Generated prefetch: 1251520 with offset 1
Generated prefetch: 1247424 with offset 1
Generated prefetch: 1259712 with offset 1
Generated prefetch: 1255616 with offset 1
Generated prefetch: 1247488 with offset 1
Generated prefetch: 1251584 with offset 1
Generated prefetch: 1255680 with offset 1
Generated prefetch: 1259776 with offset 1
Generated prefetch: 1247552 with offset 1
Generated prefetch: 1251648 with offset 1
Generated prefetch: 1259840 with offset 1
Generated prefetch: 1255744 with offset 1
Generated prefetch: 1251712 with offset 1
Generated prefetch: 1247616 with offset 1
Generated prefetch: 1259904 with offset 1
Generated prefetch: 1255808 with offset 1
Generated prefetch: 1247680 with offset 1
Generated prefetch: 1251776 with offset 1
Generated prefetch: 1255872 with offset 1
Generated prefetch: 1259968 with offset 1
Generated prefetch: 1251840 with offset 1
Generated prefetch: 1247744 with offset 1
Generated prefetch: 1260032 with offset 1
Generated prefetch: 1255936 with offset 1
Generated prefetch: 1247808 with offset 1
Generated prefetch: 1251904 with offset 1
Generated prefetch: 1256000 with offset 1
Generated prefetch: 1260096 with offset 1
Generated prefetch: 1247872 with offset 1
Generated prefetch: 1251968 with offset 1
Generated prefetch: 1260160 with offset 1
Generated prefetch: 1256064 with offset 1
Generated prefetch: 1252032 with offset 1
Generated prefetch: 1247936 with offset 1
Generated prefetch: 1260224 with offset 1
Generated prefetch: 1256128 with offset 1
Generated prefetch: 1248000 with offset 1
Generated prefetch: 1252096 with offset 1
Generated prefetch: 1256192 with offset 1
Generated prefetch: 1260288 with offset 1
Generated prefetch: 1252160 with offset 1
Generated prefetch: 1248064 with offset 1
Generated prefetch: 1260352 with offset 1
Generated prefetch: 1256256 with offset 1
Generated prefetch: 1248128 with offset 1
Generated prefetch: 1252224 with offset 1
Generated prefetch: 1256320 with offset 1
Generated prefetch: 1260416 with offset 1
Generated prefetch: 1248192 with offset 1
Generated prefetch: 1252288 with offset 1
Generated prefetch: 1260480 with offset 1
Generated prefetch: 1256384 with offset 1
Generated prefetch: 1252352 with offset 1
Generated prefetch: 1248256 with offset 1
Generated prefetch: 1260544 with offset 1
Generated prefetch: 1256448 with offset 1
Generated prefetch: 1248320 with offset 1
Generated prefetch: 1252416 with offset 1
Generated prefetch: 1256512 with offset 1
Generated prefetch: 1260608 with offset 1
Generated prefetch: 1252480 with offset 1
Generated prefetch: 1248384 with offset 1
Generated prefetch: 1260672 with offset 1
Generated prefetch: 1256576 with offset 1
Generated prefetch: 1248448 with offset 1
Generated prefetch: 1252544 with offset 1
Generated prefetch: 1256640 with offset 1
Generated prefetch: 1260736 with offset 1
Generated prefetch: 1248512 with offset 1
Generated prefetch: 1252608 with offset 1
Generated prefetch: 1260800 with offset 1
Generated prefetch: 1256704 with offset 1
Generated prefetch: 1252672 with offset 1
Generated prefetch: 1248576 with offset 1
Generated prefetch: 1260864 with offset 1
Generated prefetch: 1256768 with offset 1
Generated prefetch: 1248640 with offset 1
Generated prefetch: 1252736 with offset 1
Generated prefetch: 1256832 with offset 1
Generated prefetch: 1260928 with offset 1
Generated prefetch: 1252800 with offset 1
Generated prefetch: 1248704 with offset 1
Generated prefetch: 1260992 with offset 1
Generated prefetch: 1256896 with offset 1
Generated prefetch: 1248768 with offset 1
Generated prefetch: 1252864 with offset 1
Generated prefetch: 1256960 with offset 1
Generated prefetch: 1261056 with offset 1
Generated prefetch: 1248832 with offset 1
Generated prefetch: 1252928 with offset 1
Generated prefetch: 1261120 with offset 1
Generated prefetch: 1257024 with offset 1
Generated prefetch: 1252992 with offset 1
Generated prefetch: 1248896 with offset 1
Generated prefetch: 1261184 with offset 1
Generated prefetch: 1257088 with offset 1
Generated prefetch: 1248960 with offset 1
Generated prefetch: 1253056 with offset 1
Generated prefetch: 1257152 with offset 1
Generated prefetch: 1261248 with offset 1
Generated prefetch: 1253120 with offset 1
Generated prefetch: 1249024 with offset 1
Generated prefetch: 1261312 with offset 1
Generated prefetch: 1257216 with offset 1
Generated prefetch: 1249088 with offset 1
Generated prefetch: 1253184 with offset 1
Generated prefetch: 1257280 with offset 1
Generated prefetch: 1261376 with offset 1
Generated prefetch: 1249152 with offset 1
Generated prefetch: 1253248 with offset 1
Generated prefetch: 1261440 with offset 1
Generated prefetch: 1257344 with offset 1
Generated prefetch: 1253312 with offset 1
Generated prefetch: 1249216 with offset 1
Generated prefetch: 1261504 with offset 1
Generated prefetch: 1257408 with offset 1
Prefetch not issued - Page crossed
Prefetch not issued - Page crossed
Prefetch not issued - Page crossed
Prefetch not issued - Page crossed
Generated prefetch: 1261696 with offset 1
Generated prefetch: 1261632 with offset 1
Generated prefetch: 1265728 with offset 1
Generated prefetch: 1265792 with offset 1
Generated prefetch: 1269824 with offset 1
Generated prefetch: 1269888 with offset 1
Generated prefetch: 1273920 with offset 1
Generated prefetch: 1273984 with offset 1
Filled RR
Generated prefetch: 1265856 with offset 1
Generated prefetch: 1261760 with offset 1
Generated prefetch: 1269952 with offset 1
Generated prefetch: 1274048 with offset 1
Generated prefetch: 1261824 with offset 1
Generated prefetch: 1265920 with offset 1
Generated prefetch: 1270016 with offset 1
Generated prefetch: 1274112 with offset 1
Generated prefetch: 1265984 with offset 1
Generated prefetch: 1261888 with offset 1
Generated prefetch: 1274176 with offset 1
Generated prefetch: 1270080 with offset 1
Generated prefetch: 1261952 with offset 1
Generated prefetch: 1266048 with offset 1
Generated prefetch: 1270144 with offset 1
Generated prefetch: 1274240 with offset 1
Generated prefetch: 1266112 with offset 1
Generated prefetch: 1262016 with offset 1
Generated prefetch: 1274304 with offset 1
Generated prefetch: 1270208 with offset 1
Generated prefetch: 1266176 with offset 1
Generated prefetch: 1262080 with offset 1
Generated prefetch: 1270272 with offset 1
Generated prefetch: 1274368 with offset 1
Generated prefetch: 1262144 with offset 1
Generated prefetch: 1266240 with offset 1
Generated prefetch: 1270336 with offset 1
Generated prefetch: 1274432 with offset 1
Generated prefetch: 1266304 with offset 1
Generated prefetch: 1262208 with offset 1
Generated prefetch: 1274496 with offset 1
Generated prefetch: 1270400 with offset 1
Generated prefetch: 1262272 with offset 1
Generated prefetch: 1266368 with offset 1
Generated prefetch: 1270464 with offset 1
Generated prefetch: 1274560 with offset 1
Generated prefetch: 1266432 with offset 1
Generated prefetch: 1262336 with offset 1
Generated prefetch: 1274624 with offset 1
Generated prefetch: 1270528 with offset 1
Generated prefetch: 1266496 with offset 1
Generated prefetch: 1262400 with offset 1
Generated prefetch: 1270592 with offset 1
Generated prefetch: 1274688 with offset 1
Generated prefetch: 1262464 with offset 1
Generated prefetch: 1266560 with offset 1
Generated prefetch: 1270656 with offset 1
Generated prefetch: 1274752 with offset 1
Generated prefetch: 1266624 with offset 1
Generated prefetch: 1262528 with offset 1
Generated prefetch: 1274816 with offset 1
Generated prefetch: 1270720 with offset 1
Generated prefetch: 1262592 with offset 1
Generated prefetch: 1266688 with offset 1
Generated prefetch: 1270784 with offset 1
Generated prefetch: 1274880 with offset 1
Generated prefetch: 1266752 with offset 1
Generated prefetch: 1262656 with offset 1
Generated prefetch: 1274944 with offset 1
Generated prefetch: 1270848 with offset 1
Generated prefetch: 1266816 with offset 1
Generated prefetch: 1262720 with offset 1
Generated prefetch: 1270912 with offset 1
Generated prefetch: 1275008 with offset 1
Generated prefetch: 1262784 with offset 1
Generated prefetch: 1266880 with offset 1
Generated prefetch: 1270976 with offset 1
Generated prefetch: 1275072 with offset 1
Generated prefetch: 1266944 with offset 1
Generated prefetch: 1262848 with offset 1
Generated prefetch: 1275136 with offset 1
Generated prefetch: 1271040 with offset 1
Generated prefetch: 1262912 with offset 1
Generated prefetch: 1267008 with offset 1
Generated prefetch: 1271104 with offset 1
Generated prefetch: 1275200 with offset 1
Generated prefetch: 1267072 with offset 1
Generated prefetch: 1262976 with offset 1
Generated prefetch: 1275264 with offset 1
Generated prefetch: 1271168 with offset 1
Generated prefetch: 1267136 with offset 1
Generated prefetch: 1263040 with offset 1
Generated prefetch: 1271232 with offset 1
Generated prefetch: 1275328 with offset 1
Generated prefetch: 1263104 with offset 1
Generated prefetch: 1267200 with offset 1
Generated prefetch: 1271296 with offset 1
Generated prefetch: 1275392 with offset 1
Generated prefetch: 1267264 with offset 1
Generated prefetch: 1263168 with offset 1
Generated prefetch: 1275456 with offset 1
Generated prefetch: 1271360 with offset 1
Generated prefetch: 1263232 with offset 1
Generated prefetch: 1267328 with offset 1
Generated prefetch: 1271424 with offset 1
Generated prefetch: 1275520 with offset 1
Generated prefetch: 1267392 with offset 1
Generated prefetch: 1263296 with offset 1
Generated prefetch: 1275584 with offset 1
Generated prefetch: 1271488 with offset 1
Generated prefetch: 1267456 with offset 1
Generated prefetch: 1263360 with offset 1
Generated prefetch: 1271552 with offset 1
Generated prefetch: 1275648 with offset 1
Generated prefetch: 1263424 with offset 1
Generated prefetch: 1267520 with offset 1
Generated prefetch: 1271616 with offset 1
Generated prefetch: 1275712 with offset 1
Generated prefetch: 1267584 with offset 1
Generated prefetch: 1263488 with offset 1
Generated prefetch: 1275776 with offset 1
Generated prefetch: 1271680 with offset 1
Generated prefetch: 1263552 with offset 1
Generated prefetch: 1267648 with offset 1
Generated prefetch: 1271744 with offset 1
Generated prefetch: 1275840 with offset 1
Generated prefetch: 1267712 with offset 1
Generated prefetch: 1263616 with offset 1
Generated prefetch: 1275904 with offset 1
Generated prefetch: 1271808 with offset 1
Generated prefetch: 1267776 with offset 1
Generated prefetch: 1263680 with offset 1
Generated prefetch: 1271872 with offset 1
Generated prefetch: 1275968 with offset 1
Generated prefetch: 1263744 with offset 1
Generated prefetch: 1267840 with offset 1
Generated prefetch: 1271936 with offset 1
Generated prefetch: 1276032 with offset 1
Generated prefetch: 1267904 with offset 1
Generated prefetch: 1263808 with offset 1
Generated prefetch: 1276096 with offset 1
Generated prefetch: 1272000 with offset 1
Generated prefetch: 1263872 with offset 1
Generated prefetch: 1267968 with offset 1
Generated prefetch: 1272064 with offset 1
Generated prefetch: 1276160 with offset 1
Generated prefetch: 1268032 with offset 1
Generated prefetch: 1263936 with offset 1
Generated prefetch: 1276224 with offset 1
Generated prefetch: 1272128 with offset 1
Generated prefetch: 1268096 with offset 1
Generated prefetch: 1264000 with offset 1
Generated prefetch: 1272192 with offset 1
Generated prefetch: 1276288 with offset 1
Generated prefetch: 1264064 with offset 1
Generated prefetch: 1268160 with offset 1
Generated prefetch: 1272256 with offset 1
Generated prefetch: 1276352 with offset 1
Generated prefetch: 1268224 with offset 1
Generated prefetch: 1264128 with offset 1
Generated prefetch: 1276416 with offset 1
Generated prefetch: 1272320 with offset 1
Generated prefetch: 1264192 with offset 1
Generated prefetch: 1268288 with offset 1
Generated prefetch: 1272384 with offset 1
Generated prefetch: 1276480 with offset 1
Generated prefetch: 1268352 with offset 1
Generated prefetch: 1264256 with offset 1
Generated prefetch: 1276544 with offset 1
Generated prefetch: 1272448 with offset 1
Generated prefetch: 1268416 with offset 1
Generated prefetch: 1264320 with offset 1
Generated prefetch: 1272512 with offset 1
Generated prefetch: 1276608 with offset 1
Generated prefetch: 1264384 with offset 1
Generated prefetch: 1268480 with offset 1
Generated prefetch: 1272576 with offset 1
Generated prefetch: 1276672 with offset 1
Generated prefetch: 1268544 with offset 1
Generated prefetch: 1264448 with offset 1
[...]
Filled RR
Filled RR
Filled RR
Filled RR
Filled RR
Generated prefetch: 4612800 with offset 6
Generated prefetch: 4616896 with offset 6
Generated prefetch: 4620992 with offset 6
Generated prefetch: 4625088 with offset 6
Generated prefetch: 4612864 with offset 6
Generated prefetch: 4616960 with offset 6
Generated prefetch: 4625152 with offset 6
Generated prefetch: 4621056 with offset 6
Generated prefetch: 4617024 with offset 6
Generated prefetch: 4612928 with offset 6
Generated prefetch: 4625216 with offset 6
Generated prefetch: 4621120 with offset 6
Generated prefetch: 4612992 with offset 6
Generated prefetch: 4617088 with offset 6
Generated prefetch: 4621184 with offset 6
Generated prefetch: 4625280 with offset 6
Filled RR
Generated prefetch: 4617152 with offset 6
Generated prefetch: 4613056 with offset 6
Generated prefetch: 4625344 with offset 6
Generated prefetch: 4621248 with offset 6
Filled RR
Generated prefetch: 4613120 with offset 6
Generated prefetch: 4617216 with offset 6
Generated prefetch: 4621312 with offset 6
Generated prefetch: 4625408 with offset 6
Filled RR
Address 2437 found in RR table
New best score is 12 for offset 6
Generated prefetch: 4613184 with offset 6
Address 2499 found in RR table
Generated prefetch: 4617280 with offset 6
Generated prefetch: 4625472 with offset 6
Generated prefetch: 4621376 with offset 6
Generated prefetch: 4617344 with offset 6
Generated prefetch: 4613248 with offset 6
Generated prefetch: 4625536 with offset 6
Generated prefetch: 4621440 with offset 6
Generated prefetch: 4613312 with offset 6
Generated prefetch: 4617408 with offset 6
Generated prefetch: 4621504 with offset 6
Generated prefetch: 4625600 with offset 6
Generated prefetch: 4617472 with offset 6
Generated prefetch: 4613376 with offset 6
Generated prefetch: 4625664 with offset 6
Generated prefetch: 4621568 with offset 6
Generated prefetch: 4613440 with offset 6
Generated prefetch: 4617536 with offset 6
Generated prefetch: 4621632 with offset 6
Generated prefetch: 4625728 with offset 6
Generated prefetch: 4613504 with offset 6
Generated prefetch: 4617600 with offset 6
Generated prefetch: 4625792 with offset 6
Generated prefetch: 4621696 with offset 6
Generated prefetch: 4617664 with offset 6
Generated prefetch: 4613568 with offset 6
Generated prefetch: 4625856 with offset 6
Generated prefetch: 4621760 with offset 6
Generated prefetch: 4613632 with offset 6
Generated prefetch: 4617728 with offset 6
Generated prefetch: 4621824 with offset 6
Address 2627 found in RR table
Generated prefetch: 4625920 with offset 6
Address 2499 found in RR table
Generated prefetch: 4617792 with offset 6
Generated prefetch: 4613696 with offset 6
Generated prefetch: 4625984 with offset 6
Generated prefetch: 4621888 with offset 6
Generated prefetch: 4613760 with offset 6
Generated prefetch: 4617856 with offset 6
Generated prefetch: 4621952 with offset 6
Generated prefetch: 4626048 with offset 6
Address 2417 found in RR table
Generated prefetch: 4613824 with offset 6
Generated prefetch: 4617920 with offset 6
Generated prefetch: 4626112 with offset 6
Generated prefetch: 4622016 with offset 6
Generated prefetch: 4617984 with offset 6
Generated prefetch: 4613888 with offset 6
Generated prefetch: 4626176 with offset 6
Generated prefetch: 4622080 with offset 6
Generated prefetch: 4613952 with offset 6
Generated prefetch: 4618048 with offset 6
Generated prefetch: 4622144 with offset 6
Generated prefetch: 4626240 with offset 6
Generated prefetch: 4618112 with offset 6
Generated prefetch: 4614016 with offset 6
Generated prefetch: 4626304 with offset 6
Generated prefetch: 4622208 with offset 6
Generated prefetch: 4614080 with offset 6
Generated prefetch: 4618176 with offset 6
Generated prefetch: 4622272 with offset 6
Generated prefetch: 4626368 with offset 6
Generated prefetch: 4614144 with offset 6
Generated prefetch: 4618240 with offset 6
Generated prefetch: 4626432 with offset 6
Generated prefetch: 4622336 with offset 6
Generated prefetch: 4618304 with offset 6
Generated prefetch: 4614208 with offset 6
Generated prefetch: 4626496 with offset 6
Generated prefetch: 4622400 with offset 6
Generated prefetch: 4614272 with offset 6
Generated prefetch: 4618368 with offset 6
Generated prefetch: 4622464 with offset 6
Generated prefetch: 4626560 with offset 6
Generated prefetch: 4618432 with offset 6
Generated prefetch: 4614336 with offset 6
Generated prefetch: 4626624 with offset 6
Generated prefetch: 4622528 with offset 6
Generated prefetch: 4614400 with offset 6
Generated prefetch: 4618496 with offset 6
Generated prefetch: 4622592 with offset 6
Generated prefetch: 4626688 with offset 6
Generated prefetch: 4614464 with offset 6
Generated prefetch: 4618560 with offset 6
Generated prefetch: 4626752 with offset 6
Generated prefetch: 4622656 with offset 6
Generated prefetch: 4618624 with offset 6
Generated prefetch: 4614528 with offset 6
Generated prefetch: 4626816 with offset 6
Generated prefetch: 4622720 with offset 6
Generated prefetch: 4614592 with offset 6
Generated prefetch: 4618688 with offset 6
Address 2563 found in RR table
Generated prefetch: 4622784 with offset 6
Generated prefetch: 4626880 with offset 6
Generated prefetch: 4618752 with offset 6
Generated prefetch: 4614656 with offset 6
Generated prefetch: 4626944 with offset 6
Generated prefetch: 4622848 with offset 6
Address 2417 found in RR table
Generated prefetch: 4614720 with offset 6
Generated prefetch: 4618816 with offset 6
Generated prefetch: 4622912 with offset 6
Generated prefetch: 4627008 with offset 6
Generated prefetch: 4614784 with offset 6
Generated prefetch: 4618880 with offset 6
Generated prefetch: 4627072 with offset 6
Generated prefetch: 4622976 with offset 6
Generated prefetch: 4618944 with offset 6
Generated prefetch: 4614848 with offset 6
Generated prefetch: 4627136 with offset 6
Generated prefetch: 4623040 with offset 6
Generated prefetch: 4614912 with offset 6
Generated prefetch: 4619008 with offset 6
Generated prefetch: 4623104 with offset 6
Generated prefetch: 4627200 with offset 6
Filled RR
Filled RR
Filled RR
Filled RR
Filled RR
Filled RR
Filled RR
Filled RR
Filled RR
Filled RR
Filled RR
Filled RR
Filled RR
Filled RR
Filled RR
Filled RR
Filled RR
Filled RR
Filled RR
Filled RR
Filled RR
Filled RR
Generated prefetch: 4619072 with offset 6
Filled RR
Generated prefetch: 4614976 with offset 6
Generated prefetch: 4627264 with offset 6
Generated prefetch: 4623168 with offset 6
Filled RR
Generated prefetch: 4615040 with offset 6
Generated prefetch: 4619136 with offset 6
Address 2564 found in RR table
Generated prefetch: 4623232 with offset 6
Generated prefetch: 4627328 with offset 6
Filled RR
Generated prefetch: 4615104 with offset 6
Generated prefetch: 4619200 with offset 6
Generated prefetch: 4627392 with offset 6
Generated prefetch: 4623296 with offset 6
Filled RR
Generated prefetch: 4619264 with offset 6
Generated prefetch: 4615168 with offset 6
Generated prefetch: 4627456 with offset 6
Generated prefetch: 4623360 with offset 6
Filled RR
Address 2471 found in RR table
Generated prefetch: 4615232 with offset 6
Generated prefetch: 4619328 with offset 6
Filled RR
Address 2597 found in RR table
New best score is 13 for offset 6
Generated prefetch: 4623424 with offset 6
Address 2659 found in RR table
Generated prefetch: 4627520 with offset 6
Filled RR
Address 2531 found in RR table
Generated prefetch: 4619392 with offset 6
Generated prefetch: 4615296 with offset 6
Generated prefetch: 4627584 with offset 6
Generated prefetch: 4623488 with offset 6
Generated prefetch: 4615360 with offset 6
Generated prefetch: 4619456 with offset 6
Generated prefetch: 4623552 with offset 6
Generated prefetch: 4627648 with offset 6
Generated prefetch: 4615424 with offset 6
Generated prefetch: 4619520 with offset 6
Generated prefetch: 4627712 with offset 6
Generated prefetch: 4623616 with offset 6
Generated prefetch: 4619584 with offset 6
Generated prefetch: 4615488 with offset 6
Generated prefetch: 4627776 with offset 6
Generated prefetch: 4623680 with offset 6
Generated prefetch: 4615552 with offset 6
Generated prefetch: 4619648 with offset 6
Generated prefetch: 4623744 with offset 6
Generated prefetch: 4627840 with offset 6
Generated prefetch: 4619712 with offset 6
Generated prefetch: 4615616 with offset 6
Generated prefetch: 4627904 with offset 6
Generated prefetch: 4623808 with offset 6
Generated prefetch: 4615680 with offset 6
Generated prefetch: 4619776 with offset 6
Generated prefetch: 4623872 with offset 6
Generated prefetch: 4627968 with offset 6
Address 2471 found in RR table
Generated prefetch: 4615744 with offset 6
Generated prefetch: 4619840 with offset 6
Address 2659 found in RR table
Generated prefetch: 4628032 with offset 6
Generated prefetch: 4623936 with offset 6
Generated prefetch: 4619904 with offset 6
Generated prefetch: 4615808 with offset 6
Generated prefetch: 4628096 with offset 6
Generated prefetch: 4624000 with offset 6
Generated prefetch: 4615872 with offset 6
Generated prefetch: 4619968 with offset 6
Generated prefetch: 4624064 with offset 6
Generated prefetch: 4628160 with offset 6
Generated prefetch: 4620032 with offset 6
Generated prefetch: 4615936 with offset 6
Generated prefetch: 4628224 with offset 6
Generated prefetch: 4624128 with offset 6
Generated prefetch: 4616000 with offset 6
Generated prefetch: 4620096 with offset 6
Generated prefetch: 4624192 with offset 6
Generated prefetch: 4628288 with offset 6
Generated prefetch: 4616064 with offset 6
Generated prefetch: 4620160 with offset 6
Generated prefetch: 4628352 with offset 6
Generated prefetch: 4624256 with offset 6
Filled RR
Filled RR
Filled RR
Filled RR
Filled RR
Filled RR
Filled RR
Filled RR
Filled RR
Filled RR
Filled RR
Filled RR
Filled RR
Filled RR
Filled RR
Filled RR
Filled RR
Filled RR
Filled RR
Filled RR
Filled RR
Filled RR
Filled RR
Generated prefetch: 4620224 with offset 6
Generated prefetch: 4616128 with offset 6
Generated prefetch: 4628416 with offset 6
Generated prefetch: 4624320 with offset 6
Filled RR
Prefetch not issued - Page crossed
Prefetch not issued - Page crossed
Prefetch not issued - Page crossed
Prefetch not issued - Page crossed
Filled RR
Prefetch not issued - Page crossed
Prefetch not issued - Page crossed
Prefetch not issued - Page crossed
Prefetch not issued - Page crossed
Filled RR
Prefetch not issued - Page crossed
Prefetch not issued - Page crossed
Prefetch not issued - Page crossed
Prefetch not issued - Page crossed
Filled RR
Prefetch not issued - Page crossed
Prefetch not issued - Page crossed
Prefetch not issued - Page crossed
Prefetch not issued - Page crossed
Filled RR
Prefetch not issued - Page crossed
Prefetch not issued - Page crossed
Prefetch not issued - Page crossed
Address 2617 found in RR table
Prefetch not issued - Page crossed
Address 2489 found in RR table
New best score is 14 for offset 6
Prefetch not issued - Page crossed
Address 2551 found in RR table
Prefetch not issued - Page crossed
Prefetch not issued - Page crossed
Address 2677 found in RR table
Prefetch not issued - Page crossed
Generated prefetch: 4628864 with offset 6
Generated prefetch: 4628928 with offset 6
Generated prefetch: 4632960 with offset 6
Generated prefetch: 4633024 with offset 6
Generated prefetch: 4637056 with offset 6
Generated prefetch: 4637120 with offset 6
Generated prefetch: 4641152 with offset 6
Generated prefetch: 4641216 with offset 6
Generated prefetch: 4633088 with offset 6
Generated prefetch: 4628992 with offset 6
Generated prefetch: 4637184 with offset 6
Generated prefetch: 4641280 with offset 6
Filled RR
Filled RR
Filled RR
Filled RR
Filled RR
Filled RR
Generated prefetch: 4629056 with offset 6
Generated prefetch: 4633152 with offset 6
Generated prefetch: 4637248 with offset 6
Generated prefetch: 4641344 with offset 6
Filled RR
Generated prefetch: 4633216 with offset 6
Generated prefetch: 4629120 with offset 6
Generated prefetch: 4641408 with offset 6
Generated prefetch: 4637312 with offset 6
Filled RR
Filled RR
Generated prefetch: 4629184 with offset 6
Address 2752 found in RR table
Generated prefetch: 4633280 with offset 6
Generated prefetch: 4637376 with offset 6
Generated prefetch: 4641472 with offset 6
Filled RR
Filled RR
Filled RR
Generated prefetch: 4633344 with offset 6
Generated prefetch: 4629248 with offset 6
Generated prefetch: 4641536 with offset 6
Generated prefetch: 4637440 with offset 6
Filled RR
Filled RR
Filled RR
Filled RR
Filled RR
Filled RR
Filled RR
Filled RR
Filled RR
Filled RR
Filled RR
Filled RR
Filled RR
Filled RR
Filled RR
Filled RR
Generated prefetch: 4633408 with offset 6
Address 2677 found in RR table
Generated prefetch: 4629312 with offset 6
Generated prefetch: 4637504 with offset 6
Generated prefetch: 4641600 with offset 6
Generated prefetch: 4629376 with offset 6
Generated prefetch: 4633472 with offset 6
Generated prefetch: 4637568 with offset 6
Generated prefetch: 4641664 with offset 6
Generated prefetch: 4633536 with offset 6
Generated prefetch: 4629440 with offset 6
Generated prefetch: 4641728 with offset 6
Generated prefetch: 4637632 with offset 6
Generated prefetch: 4629504 with offset 6
Generated prefetch: 4633600 with offset 6
Generated prefetch: 4637696 with offset 6
Generated prefetch: 4641792 with offset 6
Filled RR
Generated prefetch: 4633664 with offset 6
Generated prefetch: 4629568 with offset 6
Generated prefetch: 4641856 with offset 6
Address 2822 found in RR table
Generated prefetch: 4637760 with offset 6
Filled RR
Generated prefetch: 4633728 with offset 6
Generated prefetch: 4629632 with offset 6
Address 2819 found in RR table
Generated prefetch: 4637824 with offset 6
Generated prefetch: 4641920 with offset 6
Filled RR
Generated prefetch: 4629696 with offset 6
Generated prefetch: 4633792 with offset 6
Generated prefetch: 4637888 with offset 6
Generated prefetch: 4641984 with offset 6
Generated prefetch: 4633856 with offset 6
Generated prefetch: 4629760 with offset 6
Generated prefetch: 4642048 with offset 6
Generated prefetch: 4637952 with offset 6
Generated prefetch: 4629824 with offset 6
Generated prefetch: 4633920 with offset 6
Generated prefetch: 4638016 with offset 6
Generated prefetch: 4642112 with offset 6
Generated prefetch: 4633984 with offset 6
Generated prefetch: 4629888 with offset 6
Generated prefetch: 4642176 with offset 6
Generated prefetch: 4638080 with offset 6
Generated prefetch: 4634048 with offset 6
Generated prefetch: 4629952 with offset 6
Generated prefetch: 4638144 with offset 6
Generated prefetch: 4642240 with offset 6
Filled RR
Filled RR
Filled RR
Filled RR
Filled RR
Filled RR
Filled RR
Filled RR
Filled RR
Filled RR
Filled RR
Filled RR
Filled RR
Filled RR
Filled RR
Filled RR
Filled RR
Filled RR
Filled RR
Filled RR
Filled RR
Generated prefetch: 4630016 with offset 6
Generated prefetch: 4634112 with offset 6
Generated prefetch: 4638208 with offset 6
Generated prefetch: 4642304 with offset 6
Filled RR
Filled RR
Filled RR
Simulation finished CPU 0 instructions: 2000001 cycles: 4084694 cumulative IPC: 0.4896 (Simulation time: 00 hr 00 min 17 sec)
Simulation complete CPU 0 instructions: 2000001 cycles: 4084694 cumulative IPC: 0.4896 (Simulation time: 00 hr 00 min 17 sec)

ChampSim completed all CPUs

=== Simulation ===
CPU 0 runs /home/jalexandrou/Documents/Imperial/4Yr/ChampSim/SPEC_quick/603.bwaves_s-891B.champsimtrace.xz
Region of Interest Statistics

CPU 0 cumulative IPC: 0.4896 instructions: 2000001 cycles: 4084694
CPU 0 Branch Prediction Accuracy: 71.37% MPKI: 21.79 Average ROB Occupancy at Mispredict: 229.1
Branch type MPKI
BRANCH_DIRECT_JUMP: 0
BRANCH_INDIRECT: 0
BRANCH_CONDITIONAL: 21.8
BRANCH_DIRECT_CALL: 0
BRANCH_INDIRECT_CALL: 0
BRANCH_RETURN: 0

LLC TOTAL        ACCESS:      77350 HIT:      23032 MISS:      54318
LLC LOAD         ACCESS:      11352 HIT:          0 MISS:      11352
LLC RFO          ACCESS:          0 HIT:          0 MISS:          0
LLC PREFETCH     ACCESS:      42935 HIT:          0 MISS:      42935
LLC WRITE        ACCESS:      23032 HIT:      23032 MISS:          0
LLC TRANSLATION  ACCESS:         31 HIT:          0 MISS:         31
LLC PREFETCH REQUESTED:          0 ISSUED:          0 USEFUL:          0 USELESS:          0
LLC AVERAGE MISS LATENCY: 1505 cycles
cpu0_DTLB TOTAL        ACCESS:     433399 HIT:     427592 MISS:       5807
cpu0_DTLB LOAD         ACCESS:     433399 HIT:     427592 MISS:       5807
cpu0_DTLB RFO          ACCESS:          0 HIT:          0 MISS:          0
cpu0_DTLB PREFETCH     ACCESS:          0 HIT:          0 MISS:          0
cpu0_DTLB WRITE        ACCESS:          0 HIT:          0 MISS:          0
cpu0_DTLB TRANSLATION  ACCESS:          0 HIT:          0 MISS:          0
cpu0_DTLB PREFETCH REQUESTED:          0 ISSUED:          0 USEFUL:          0 USELESS:          0
cpu0_DTLB AVERAGE MISS LATENCY: 15.94 cycles
cpu0_ITLB TOTAL        ACCESS:         17 HIT:         14 MISS:          3
cpu0_ITLB LOAD         ACCESS:         17 HIT:         14 MISS:          3
cpu0_ITLB RFO          ACCESS:          0 HIT:          0 MISS:          0
cpu0_ITLB PREFETCH     ACCESS:          0 HIT:          0 MISS:          0
cpu0_ITLB WRITE        ACCESS:          0 HIT:          0 MISS:          0
cpu0_ITLB TRANSLATION  ACCESS:          0 HIT:          0 MISS:          0
cpu0_ITLB PREFETCH REQUESTED:          0 ISSUED:          0 USEFUL:          0 USELESS:          0
cpu0_ITLB AVERAGE MISS LATENCY: 537 cycles
cpu0_L1D TOTAL        ACCESS:     434275 HIT:     239547 MISS:     194728
cpu0_L1D LOAD         ACCESS:     302042 HIT:     107348 MISS:     194694
cpu0_L1D RFO          ACCESS:          0 HIT:          0 MISS:          0
cpu0_L1D PREFETCH     ACCESS:          0 HIT:          0 MISS:          0
cpu0_L1D WRITE        ACCESS:     131357 HIT:     131357 MISS:          0
cpu0_L1D TRANSLATION  ACCESS:        876 HIT:        842 MISS:         34
cpu0_L1D PREFETCH REQUESTED:          0 ISSUED:          0 USEFUL:          0 USELESS:          0
cpu0_L1D AVERAGE MISS LATENCY: 102.4 cycles
cpu0_L1I TOTAL        ACCESS:         20 HIT:          7 MISS:         13
cpu0_L1I LOAD         ACCESS:         20 HIT:          7 MISS:         13
cpu0_L1I RFO          ACCESS:          0 HIT:          0 MISS:          0
cpu0_L1I PREFETCH     ACCESS:          0 HIT:          0 MISS:          0
cpu0_L1I WRITE        ACCESS:          0 HIT:          0 MISS:          0
cpu0_L1I TRANSLATION  ACCESS:          0 HIT:          0 MISS:          0
cpu0_L1I PREFETCH REQUESTED:          0 ISSUED:          0 USEFUL:          0 USELESS:          0
cpu0_L1I AVERAGE MISS LATENCY: 506 cycles
cpu0_L2C TOTAL        ACCESS:     124384 HIT:      46069 MISS:      78315
cpu0_L2C LOAD         ACCESS:      54252 HIT:      19024 MISS:      35228
cpu0_L2C RFO          ACCESS:          0 HIT:          0 MISS:          0
cpu0_L2C PREFETCH     ACCESS:      43362 HIT:        306 MISS:      43056
cpu0_L2C WRITE        ACCESS:      26739 HIT:      26739 MISS:          0
cpu0_L2C TRANSLATION  ACCESS:         31 HIT:          0 MISS:         31
cpu0_L2C PREFETCH REQUESTED:      45452 ISSUED:      43362 USEFUL:      42900 USELESS:         11
cpu0_L2C AVERAGE MISS LATENCY: 794.6 cycles
cpu0_STLB TOTAL        ACCESS:        856 HIT:          0 MISS:        856
cpu0_STLB LOAD         ACCESS:        856 HIT:          0 MISS:        856
cpu0_STLB RFO          ACCESS:          0 HIT:          0 MISS:          0
cpu0_STLB PREFETCH     ACCESS:          0 HIT:          0 MISS:          0
cpu0_STLB WRITE        ACCESS:          0 HIT:          0 MISS:          0
cpu0_STLB TRANSLATION  ACCESS:          0 HIT:          0 MISS:          0
cpu0_STLB PREFETCH REQUESTED:          0 ISSUED:          0 USEFUL:          0 USELESS:          0
cpu0_STLB AVERAGE MISS LATENCY: 220.7 cycles

DRAM Statistics

Channel 0 RQ ROW_BUFFER_HIT:      45491
  ROW_BUFFER_MISS:       8823
 AVG DBUS CONGESTED CYCLE: 3.978
WQ ROW_BUFFER_HIT: Channel 0 
  ROW_BUFFER_MISS:       4341
  FULL:       6311
KAIROS ISSUED: 43362
KAIROS USEFUL: 19024
