WARNING: physical memory size is smaller than virtual memory size.

*** ChampSim Multicore Out-of-Order Simulator ***
Warmup Instructions: 1000000
Simulation Instructions: 2000000
Number of CPUs: 1
Page size: 4096

Off-chip DRAM Size: 4 GiB Channels: 1 Width: 64-bit Data Race: 3200 MT/s
Warmup finished CPU 0 instructions: 1000000 cycles: 250047 cumulative IPC: 3.999 (Simulation time: 00 hr 00 min 01 sec)
Warmup complete CPU 0 instructions: 1000000 cycles: 250047 cumulative IPC: 3.999 (Simulation time: 00 hr 00 min 01 sec)
Simulation finished CPU 0 instructions: 2000002 cycles: 2610607 cumulative IPC: 0.7661 (Simulation time: 00 hr 00 min 12 sec)
Simulation complete CPU 0 instructions: 2000002 cycles: 2610607 cumulative IPC: 0.7661 (Simulation time: 00 hr 00 min 12 sec)

ChampSim completed all CPUs

=== Simulation ===
CPU 0 runs /home/jalexandrou/Documents/Imperial/4Yr/ChampSim/SPEC_quick/602.gcc_s-2226B.champsimtrace.xz
Region of Interest Statistics

CPU 0 cumulative IPC: 0.7661 instructions: 2000002 cycles: 2610607
CPU 0 Branch Prediction Accuracy: 98.41% MPKI: 5.661 Average ROB Occupancy at Mispredict: 64.38
Branch type MPKI
BRANCH_DIRECT_JUMP: 0.0965
BRANCH_INDIRECT: 0
BRANCH_CONDITIONAL: 5.56
BRANCH_DIRECT_CALL: 0
BRANCH_INDIRECT_CALL: 0
BRANCH_RETURN: 0

LLC TOTAL        ACCESS:     246514 HIT:       4568 MISS:     241946
LLC LOAD         ACCESS:     129895 HIT:       3248 MISS:     126647
LLC RFO          ACCESS:         67 HIT:          0 MISS:         67
LLC PREFETCH     ACCESS:     115609 HIT:       1008 MISS:     114601
LLC WRITE        ACCESS:        240 HIT:        237 MISS:          3
LLC TRANSLATION  ACCESS:        703 HIT:         75 MISS:        628
LLC PREFETCH REQUESTED:          0 ISSUED:          0 USEFUL:          0 USELESS:          0
LLC AVERAGE MISS LATENCY: 126.6 cycles
cpu0_DTLB TOTAL        ACCESS:     488091 HIT:     420637 MISS:      67454
cpu0_DTLB LOAD         ACCESS:     488091 HIT:     420637 MISS:      67454
cpu0_DTLB RFO          ACCESS:          0 HIT:          0 MISS:          0
cpu0_DTLB PREFETCH     ACCESS:          0 HIT:          0 MISS:          0
cpu0_DTLB WRITE        ACCESS:          0 HIT:          0 MISS:          0
cpu0_DTLB TRANSLATION  ACCESS:          0 HIT:          0 MISS:          0
cpu0_DTLB PREFETCH REQUESTED:          0 ISSUED:          0 USEFUL:          0 USELESS:          0
cpu0_DTLB AVERAGE MISS LATENCY: 8.906 cycles
cpu0_ITLB TOTAL        ACCESS:          0 HIT:          0 MISS:          0
cpu0_ITLB LOAD         ACCESS:          0 HIT:          0 MISS:          0
cpu0_ITLB RFO          ACCESS:          0 HIT:          0 MISS:          0
cpu0_ITLB PREFETCH     ACCESS:          0 HIT:          0 MISS:          0
cpu0_ITLB WRITE        ACCESS:          0 HIT:          0 MISS:          0
cpu0_ITLB TRANSLATION  ACCESS:          0 HIT:          0 MISS:          0
cpu0_ITLB PREFETCH REQUESTED:          0 ISSUED:          0 USEFUL:          0 USELESS:          0
cpu0_ITLB AVERAGE MISS LATENCY: -nan cycles
cpu0_L1D TOTAL        ACCESS:     490930 HIT:      80935 MISS:     409995
cpu0_L1D LOAD         ACCESS:     462444 HIT:      53339 MISS:     409105
cpu0_L1D RFO          ACCESS:          0 HIT:          0 MISS:          0
cpu0_L1D PREFETCH     ACCESS:          0 HIT:          0 MISS:          0
cpu0_L1D WRITE        ACCESS:      25646 HIT:      25567 MISS:         79
cpu0_L1D TRANSLATION  ACCESS:       2840 HIT:       2029 MISS:        811
cpu0_L1D PREFETCH REQUESTED:          0 ISSUED:          0 USEFUL:          0 USELESS:          0
cpu0_L1D AVERAGE MISS LATENCY: 78.07 cycles
cpu0_L1I TOTAL        ACCESS:          0 HIT:          0 MISS:          0
cpu0_L1I LOAD         ACCESS:          0 HIT:          0 MISS:          0
cpu0_L1I RFO          ACCESS:          0 HIT:          0 MISS:          0
cpu0_L1I PREFETCH     ACCESS:          0 HIT:          0 MISS:          0
cpu0_L1I WRITE        ACCESS:          0 HIT:          0 MISS:          0
cpu0_L1I TRANSLATION  ACCESS:          0 HIT:          0 MISS:          0
cpu0_L1I PREFETCH REQUESTED:          0 ISSUED:          0 USEFUL:          0 USELESS:          0
cpu0_L1I AVERAGE MISS LATENCY: -nan cycles
cpu0_L2C TOTAL        ACCESS:     448459 HIT:       4452 MISS:     444007
cpu0_L2C LOAD         ACCESS:     140267 HIT:       2738 MISS:     137529
cpu0_L2C RFO          ACCESS:         72 HIT:          5 MISS:         67
cpu0_L2C PREFETCH     ACCESS:     307075 HIT:       1369 MISS:     305706
cpu0_L2C WRITE        ACCESS:        238 HIT:        236 MISS:          2
cpu0_L2C TRANSLATION  ACCESS:        807 HIT:        104 MISS:        703
cpu0_L2C PREFETCH REQUESTED:     313099 ISSUED:     307078 USEFUL:      10316 USELESS:        759
cpu0_L2C AVERAGE MISS LATENCY: 72.67 cycles
cpu0_STLB TOTAL        ACCESS:       2919 HIT:        156 MISS:       2763
cpu0_STLB LOAD         ACCESS:       2919 HIT:        156 MISS:       2763
cpu0_STLB RFO          ACCESS:          0 HIT:          0 MISS:          0
cpu0_STLB PREFETCH     ACCESS:          0 HIT:          0 MISS:          0
cpu0_STLB WRITE        ACCESS:          0 HIT:          0 MISS:          0
cpu0_STLB TRANSLATION  ACCESS:          0 HIT:          0 MISS:          0
cpu0_STLB PREFETCH REQUESTED:          0 ISSUED:          0 USEFUL:          0 USELESS:          0
cpu0_STLB AVERAGE MISS LATENCY: 275.2 cycles

DRAM Statistics

Channel 0 RQ ROW_BUFFER_HIT:     133544
  ROW_BUFFER_MISS:       8204
 AVG DBUS CONGESTED CYCLE: 3.981
WQ ROW_BUFFER_HIT: Channel 0 
  ROW_BUFFER_MISS:         49
  FULL:        187
