WARNING: physical memory size is smaller than virtual memory size.

*** ChampSim Multicore Out-of-Order Simulator ***
Warmup Instructions: 0
Simulation Instructions: 2000000
Number of CPUs: 1
Page size: 4096

BOP Prefetcher Initialise
Off-chip DRAM Size: 4 GiB Channels: 1 Width: 64-bit Data Race: 3200 MT/s
Warmup finished CPU 0 instructions: 0 cycles: 1 cumulative IPC: 0 (Simulation time: 00 hr 00 min 00 sec)
Warmup complete CPU 0 instructions: 0 cycles: 1 cumulative IPC: 0 (Simulation time: 00 hr 00 min 00 sec)
Address 1632 found in the RR table
New best score is 1
Address 1375 found in the RR table
Address 1629 found in the RR table
Address 1573 found in the RR table
New best score is 2
Address 1443 found in the RR table
Address 1569 found in the RR table
Address 1633 found in the RR table
Address 1645 found in the RR table
Address 1388 found in the RR table
New best score is 3
Address 1579 found in the RR table
Address 1450 found in the RR table
Address 1386 found in the RR table
Address 1439 found in the RR table
Address 1586 found in the RR table
New best score is 4
Address 1454 found in the RR table
Address 1451 found in the RR table
Address 1374 found in the RR table
Address 1401 found in the RR table
New best score is 5
Address 1464 found in the RR table
Address 1587 found in the RR table
Address 1391 found in the RR table
Address 1387 found in the RR table
Address 1663 found in the RR table
Address 1645 found in the RR table
Address 1631 found in the RR table
Address 1735 found in the RR table
Address 1861 found in the RR table
Address 1663 found in the RR table
Address 1647 found in the RR table
Address 1868 found in the RR table
New best score is 6
Address 1671 found in the RR table
Address 1861 found in the RR table
Address 1683 found in the RR table
New best score is 7
Address 1809 found in the RR table
Address 1681 found in the RR table
Address 1743 found in the RR table
Address 1869 found in the RR table
Address 1669 found in the RR table
Address 1643 found in the RR table
Address 1869 found in the RR table
Address 1797 found in the RR table
Address 1886 found in the RR table
New best score is 8
Address 1693 found in the RR table
Address 1815 found in the RR table
Address 1797 found in the RR table
Address 1702 found in the RR table
Address 1765 found in the RR table
New best score is 9
Address 1823 found in the RR table
Address 1897 found in the RR table
Address 1831 found in the RR table
Address 1703 found in the RR table
Address 1695 found in the RR table
Address 1885 found in the RR table
Address 1679 found in the RR table
Address 1715 found in the RR table
Address 1841 found in the RR table
Address 1901 found in the RR table
Address 1831 found in the RR table
Address 1893 found in the RR table
Address 1887 found in the RR table
Address 1821 found in the RR table
Address 1677 found in the RR table
Address 1848 found in the RR table
New best score is 10
Address 1783 found in the RR table
Address 1887 found in the RR table
Address 2117 found in the RR table
New best score is 11
Address 1988 found in the RR table
Address 2115 found in the RR table
Address 1985 found in the RR table
Address 2252 found in the RR table
New best score is 12
Address 2059 found in the RR table
Address 2250 found in the RR table
Address 1992 found in the RR table
Address 2119 found in the RR table
Address 1986 found in the RR table
Address 2066 found in the RR table
New best score is 13
Address 2258 found in the RR table
Address 2001 found in the RR table
Address 1998 found in the RR table
Address 2059 found in the RR table
Address 1990 found in the RR table
Address 1984 found in the RR table
Address 2265 found in the RR table
New best score is 14
Address 2135 found in the RR table
Address 2263 found in the RR table
Address 2005 found in the RR table
Address 2067 found in the RR table
Address 2002 found in the RR table
Address 2255 found in the RR table
Address 2251 found in the RR table
Address 1991 found in the RR table
Address 2242 found in the RR table
Address 1984 found in the RR table
Address 2079 found in the RR table
New best score is 15
Address 2270 found in the RR table
Address 2139 found in the RR table
Address 2267 found in the RR table
Address 2010 found in the RR table
Address 2003 found in the RR table
Address 1997 found in the RR table
Address 2251 found in the RR table
Address 2243 found in the RR table
Address 2279 found in the RR table
Address 2022 found in the RR table
New best score is 16
Address 2018 found in the RR table
Address 2131 found in the RR table
Address 1999 found in the RR table
Address 2156 found in the RR table
New best score is 17
Address 2028 found in the RR table
Address 2283 found in the RR table
Address 2023 found in the RR table
Address 2018 found in the RR table
Address 2055 found in the RR table
Address 1987 found in the RR table
Address 2292 found in the RR table
Address 2035 found in the RR table
New best score is 18
Address 2033 found in the RR table
Address 2287 found in the RR table
Address 2025 found in the RR table
Address 2017 found in the RR table
Address 1984 found in the RR table
Address 2169 found in the RR table
New best score is 19
Address 2040 found in the RR table
Address 2167 found in the RR table
Address 2036 found in the RR table
Address 2159 found in the RR table
Address 2031 found in the RR table
Address 2091 found in the RR table
Address 2151 found in the RR table
Address 2279 found in the RR table
Address 2368 found in the RR table
New best score is 20
Address 2286 found in the RR table
Address 2438 found in the RR table
New best score is 21
Address 2278 found in the RR table
Address 2382 found in the RR table
Address 2317 found in the RR table
New best score is 22
Address 2443 found in the RR table
Address 2315 found in the RR table
Address 2503 found in the RR table
Address 2371 found in the RR table
Address 2299 found in the RR table
Address 2294 found in the RR table
Address 2515 found in the RR table
New best score is 23
Address 2323 found in the RR table
Address 2447 found in the RR table
Address 2383 found in the RR table
Address 2375 found in the RR table
Address 2303 found in the RR table
Address 2295 found in the RR table
Address 2282 found in the RR table
Address 2330 found in the RR table
New best score is 24
Address 2387 found in the RR table
Address 2511 found in the RR table
Address 2439 found in the RR table
Address 2307 found in the RR table
Address 2290 found in the RR table
Address 2528 found in the RR table
New best score is 25
Address 2335 found in the RR table
Address 2395 found in the RR table
Address 2439 found in the RR table
Address 2291 found in the RR table
Address 2344 found in the RR table
Address 2407 found in the RR table
New best score is 26
Address 2403 found in the RR table
Address 2539 found in the RR table
Address 2531 found in the RR table
Address 2403 found in the RR table
Address 2527 found in the RR table
Address 2459 found in the RR table
Address 2331 found in the RR table
Address 2357 found in the RR table
Address 2483 found in the RR table
Address 2543 found in the RR table
Address 2535 found in the RR table
Address 2463 found in the RR table
Address 2331 found in the RR table
Address 2519 found in the RR table
Address 2451 found in the RR table
Address 2319 found in the RR table
Address 2490 found in the RR table
New best score is 27
Address 2547 found in the RR table
Address 2561 found in the RR table
New best score is 28
Address 2559 found in the RR table
Address 2551 found in the RR table
Address 2547 found in the RR table
Address 2759 found in the RR table
New best score is 29
Address 2631 found in the RR table
Address 2691 found in the RR table
Address 2563 found in the RR table
Address 2555 found in the RR table
Address 2547 found in the RR table
Address 2539 found in the RR table
Address 2575 found in the RR table
Address 2631 found in the RR table
Address 2691 found in the RR table
Address 2708 found in the RR table
New best score is 30
Address 2579 found in the RR table
Address 2639 found in the RR table
Address 2535 found in the RR table
Address 2651 found in the RR table
New best score is 31
New best offset is 3
Generated prefetch: 1218624
Generated prefetch: 1222720
Generated prefetch: 1226816
Generated prefetch: 1218688
Address 2583 found in the RR table
New best score is 1
Generated prefetch: 1214592
Generated prefetch: 1226880
Generated prefetch: 1222784
Generated prefetch: 1214656
Generated prefetch: 1218752
Generated prefetch: 1222848
Generated prefetch: 1226944
Generated prefetch: 1218816
Generated prefetch: 1214720
Generated prefetch: 1227008
Generated prefetch: 1222912
Generated prefetch: 1218880
Generated prefetch: 1214784
Generated prefetch: 1222976
Generated prefetch: 1227072
Generated prefetch: 1214848
Generated prefetch: 1218944
Generated prefetch: 1223040
Generated prefetch: 1227136
Generated prefetch: 1219008
Generated prefetch: 1214912
Generated prefetch: 1227200
Generated prefetch: 1223104
Address 2593 found in the RR table
Generated prefetch: 1214976
Generated prefetch: 1219072
Address 2719 found in the RR table
Generated prefetch: 1223168
Generated prefetch: 1227264
Generated prefetch: 1219136
Generated prefetch: 1215040
Generated prefetch: 1227328
Address 2711 found in the RR table
Generated prefetch: 1223232
Address 2647 found in the RR table
Generated prefetch: 1219200
Generated prefetch: 1215104
Address 2707 found in the RR table
Generated prefetch: 1223296
Address 2767 found in the RR table
Generated prefetch: 1227392
Address 2575 found in the RR table
Generated prefetch: 1215168
Generated prefetch: 1219264
Generated prefetch: 1223360
Generated prefetch: 1227456
Generated prefetch: 1219328
Generated prefetch: 1215232
Generated prefetch: 1227520
Generated prefetch: 1223424
Generated prefetch: 1215296
Generated prefetch: 1219392
Generated prefetch: 1223488
Generated prefetch: 1227584
Address 2665 found in the RR table
Generated prefetch: 1219456
Generated prefetch: 1215360
Address 2791 found in the RR table
New best score is 2
Generated prefetch: 1227648
Generated prefetch: 1223552
Generated prefetch: 1219520
Generated prefetch: 1215424
Generated prefetch: 1223616
Generated prefetch: 1227712
Address 2593 found in the RR table
Generated prefetch: 1215488
Generated prefetch: 1219584
Generated prefetch: 1223680
Address 2779 found in the RR table
Generated prefetch: 1227776
Generated prefetch: 1219648
Generated prefetch: 1215552
Generated prefetch: 1227840
Address 2707 found in the RR table
Generated prefetch: 1223744
Generated prefetch: 1215616
Address 2639 found in the RR table
Generated prefetch: 1219712
Address 2699 found in the RR table
Generated prefetch: 1223808
Address 2759 found in the RR table
Generated prefetch: 1227904
Address 2627 found in the RR table
Generated prefetch: 1219776
Generated prefetch: 1215680
Generated prefetch: 1227968
Generated prefetch: 1223872
Generated prefetch: 1219840
Generated prefetch: 1215744
Generated prefetch: 1223936
Address 2798 found in the RR table
Generated prefetch: 1228032
Generated prefetch: 1215808
Generated prefetch: 1219904
Generated prefetch: 1224000
Generated prefetch: 1228096
Generated prefetch: 1219968
Generated prefetch: 1215872
Address 2791 found in the RR table
Generated prefetch: 1228160
Generated prefetch: 1224064
Generated prefetch: 1215936
Generated prefetch: 1220032
Generated prefetch: 1224128
Generated prefetch: 1228224
Generated prefetch: 1220096
Generated prefetch: 1216000
Address 2775 found in the RR table
Generated prefetch: 1228288
Generated prefetch: 1224192
Generated prefetch: 1220160
Generated prefetch: 1216064
Generated prefetch: 1224256
Generated prefetch: 1228352
Generated prefetch: 1216128
Generated prefetch: 1220224
Generated prefetch: 1224320
Generated prefetch: 1228416
Address 2678 found in the RR table
Generated prefetch: 1220288
Address 2613 found in the RR table
Generated prefetch: 1216192
Generated prefetch: 1228480
Address 2739 found in the RR table
Generated prefetch: 1224384
Address 2611 found in the RR table
Generated prefetch: 1216256
Generated prefetch: 1220352
Generated prefetch: 1224448
Address 2799 found in the RR table
Generated prefetch: 1228544
Generated prefetch: 1220416
Address 2603 found in the RR table
Generated prefetch: 1216320
Generated prefetch: 1228608
Generated prefetch: 1224512
Address 2663 found in the RR table
Generated prefetch: 1220480
Generated prefetch: 1216384
Generated prefetch: 1224576
Generated prefetch: 1228672
Generated prefetch: 1216448
Generated prefetch: 1220544
Generated prefetch: 1224640
Generated prefetch: 1228736
Prefetch not issued - Page crossed
Prefetch not issued - Page crossed
Address 2763 found in the RR table
Prefetch not issued - Page crossed
Address 2695 found in the RR table
Prefetch not issued - Page crossed
Prefetch not issued - Page crossed
Prefetch not issued - Page crossed
Prefetch not issued - Page crossed
Address 2811 found in the RR table
New best score is 3
Prefetch not issued - Page crossed
Address 2683 found in the RR table
Prefetch not issued - Page crossed
Prefetch not issued - Page crossed
Prefetch not issued - Page crossed
Address 2743 found in the RR table
Prefetch not issued - Page crossed
Address 2807 found in the RR table
Generated prefetch: 1228992
Generated prefetch: 1233088
Generated prefetch: 1237184
Generated prefetch: 1241280
Generated prefetch: 1233152
Generated prefetch: 1237248
Generated prefetch: 1241344
Generated prefetch: 1229056
Generated prefetch: 1229120
Generated prefetch: 1233216
Generated prefetch: 1241408
Generated prefetch: 1237312
Generated prefetch: 1233280
Address 2779 found in the RR table
Generated prefetch: 1229184
Generated prefetch: 1237376
Generated prefetch: 1241472
Generated prefetch: 1229248
Generated prefetch: 1233344
Generated prefetch: 1241536
Generated prefetch: 1237440
Generated prefetch: 1229312
Address 2882 found in the RR table
New best score is 4
Generated prefetch: 1233408
Generated prefetch: 1237504
Generated prefetch: 1241600
Generated prefetch: 1233472
Generated prefetch: 1229376
Generated prefetch: 1237568
Generated prefetch: 1241664
Address 2811 found in the RR table
Generated prefetch: 1229440
Generated prefetch: 1233536
Generated prefetch: 1241728
Generated prefetch: 1237632
Generated prefetch: 1233600
Generated prefetch: 1229504
Generated prefetch: 1237696
Generated prefetch: 1241792
Address 2795 found in the RR table
Generated prefetch: 1229568
Generated prefetch: 1233664
Generated prefetch: 1241856
Generated prefetch: 1237760
Generated prefetch: 1229632
Generated prefetch: 1233728
Generated prefetch: 1237824
Generated prefetch: 1241920
Generated prefetch: 1233792
Generated prefetch: 1229696
Generated prefetch: 1237888
Address 3016 found in the RR table
New best score is 5
Generated prefetch: 1241984
Generated prefetch: 1229760
Address 2887 found in the RR table
Generated prefetch: 1233856
Generated prefetch: 1242048
Generated prefetch: 1237952
Generated prefetch: 1233920
Generated prefetch: 1229824
Generated prefetch: 1238016
Generated prefetch: 1242112
Generated prefetch: 1229888
Generated prefetch: 1233984
Generated prefetch: 1242176
Generated prefetch: 1238080
Generated prefetch: 1229952
Generated prefetch: 1234048
Generated prefetch: 1238144
Generated prefetch: 1242240
Generated prefetch: 1234112
Generated prefetch: 1230016
Generated prefetch: 1238208
Generated prefetch: 1242304
Address 2783 found in the RR table
Generated prefetch: 1230080
Generated prefetch: 1234176
Generated prefetch: 1242368
Generated prefetch: 1238272
Address 2896 found in the RR table
Generated prefetch: 1234240
Address 2831 found in the RR table
New best score is 6
Generated prefetch: 1230144
Generated prefetch: 1238336
Generated prefetch: 1242432
Generated prefetch: 1230208
Address 2891 found in the RR table
Generated prefetch: 1234304
Generated prefetch: 1242496
Generated prefetch: 1238400
Generated prefetch: 1230272
Generated prefetch: 1234368
Generated prefetch: 1238464
Address 3010 found in the RR table
Generated prefetch: 1242560
Generated prefetch: 1234432
Generated prefetch: 1230336
Generated prefetch: 1238528
Generated prefetch: 1242624
Generated prefetch: 1230400
Generated prefetch: 1234496
Generated prefetch: 1242688
Generated prefetch: 1238592
Generated prefetch: 1234560
Address 2791 found in the RR table
Generated prefetch: 1230464
Generated prefetch: 1238656
Generated prefetch: 1242752
Generated prefetch: 1230528
Generated prefetch: 1234624
Generated prefetch: 1242816
Address 2965 found in the RR table
New best score is 7
Generated prefetch: 1238720
Generated prefetch: 1230592
Generated prefetch: 1234688
Address 2963 found in the RR table
Generated prefetch: 1238784
Generated prefetch: 1242880
Generated prefetch: 1234752
Generated prefetch: 1230656
Generated prefetch: 1238848
Address 3019 found in the RR table
Generated prefetch: 1242944
Address 2827 found in the RR table
Generated prefetch: 1230720
Generated prefetch: 1234816
Address 3015 found in the RR table
Generated prefetch: 1243008
Generated prefetch: 1238912
Generated prefetch: 1234880
Generated prefetch: 1230784
Generated prefetch: 1238976
Generated prefetch: 1243072
Generated prefetch: 1230848
Generated prefetch: 1234944
Generated prefetch: 1243136
Generated prefetch: 1239040
Generated prefetch: 1230912
Generated prefetch: 1235008
Generated prefetch: 1239104
Generated prefetch: 1243200
Address 2909 found in the RR table
Generated prefetch: 1235072
Generated prefetch: 1230976
Address 2971 found in the RR table
Generated prefetch: 1239168
Generated prefetch: 1243264
Generated prefetch: 1231040
Generated prefetch: 1235136
Address 3031 found in the RR table
Generated prefetch: 1243328
Generated prefetch: 1239232
Generated prefetch: 1235200
Generated prefetch: 1231104
Generated prefetch: 1239296
Address 3023 found in the RR table
Generated prefetch: 1243392
Generated prefetch: 1231168
Generated prefetch: 1235264
Generated prefetch: 1243456
Address 2951 found in the RR table
Generated prefetch: 1239360
Generated prefetch: 1231232
Generated prefetch: 1235328
Generated prefetch: 1239424
Generated prefetch: 1243520
Generated prefetch: 1235392
Generated prefetch: 1231296
Generated prefetch: 1239488
Generated prefetch: 1243584
Generated prefetch: 1231360
Generated prefetch: 1235456
Generated prefetch: 1243648
Address 2978 found in the RR table
New best score is 8
Generated prefetch: 1239552
Generated prefetch: 1235520
Generated prefetch: 1231424
Generated prefetch: 1239616
Generated prefetch: 1243712
Generated prefetch: 1231488
Generated prefetch: 1235584
Address 3035 found in the RR table
Generated prefetch: 1243776
Generated prefetch: 1239680
Generated prefetch: 1231552
Generated prefetch: 1235648
Generated prefetch: 1239744
Generated prefetch: 1243840
Generated prefetch: 1235712
Generated prefetch: 1231616
Address 2955 found in the RR table
Generated prefetch: 1239808
Generated prefetch: 1243904
Generated prefetch: 1231680
Address 2882 found in the RR table
Generated prefetch: 1235776
Generated prefetch: 1243968
Generated prefetch: 1239872
Generated prefetch: 1235840
Generated prefetch: 1231744
Generated prefetch: 1239936
Generated prefetch: 1244032
Address 2858 found in the RR table
Generated prefetch: 1231808
Address 2921 found in the RR table
New best score is 9
Generated prefetch: 1235904
Generated prefetch: 1244096
Address 2983 found in the RR table
Generated prefetch: 1240000
Address 2855 found in the RR table
Generated prefetch: 1231872
Generated prefetch: 1235968
Generated prefetch: 1240064
Address 3043 found in the RR table
Generated prefetch: 1244160
Generated prefetch: 1236032
Address 2847 found in the RR table
Generated prefetch: 1231936
Generated prefetch: 1240128
Generated prefetch: 1244224
Address 2843 found in the RR table
Generated prefetch: 1232000
Address 2903 found in the RR table
Generated prefetch: 1236096
Generated prefetch: 1244288
Generated prefetch: 1240192
Generated prefetch: 1236160
Generated prefetch: 1232064
Generated prefetch: 1240256
Generated prefetch: 1244352
Generated prefetch: 1232128
Generated prefetch: 1236224
Generated prefetch: 1244416
Generated prefetch: 1240320
Generated prefetch: 1232192
Generated prefetch: 1236288
Generated prefetch: 1240384
Address 3055 found in the RR table
New best score is 10
Generated prefetch: 1244480
Address 2927 found in the RR table
Generated prefetch: 1236352
Generated prefetch: 1232256
Generated prefetch: 1240448
Address 3051 found in the RR table
Generated prefetch: 1244544
Address 2859 found in the RR table
Generated prefetch: 1232320
Generated prefetch: 1236416
Generated prefetch: 1244608
Generated prefetch: 1240512
Generated prefetch: 1236480
Address 2851 found in the RR table
Generated prefetch: 1232384
Generated prefetch: 1240576
Generated prefetch: 1244672
Generated prefetch: 1232448
Address 2907 found in the RR table
Generated prefetch: 1236544
Generated prefetch: 1244736
Generated prefetch: 1240640
Address 2835 found in the RR table
Generated prefetch: 1232512
Address 2895 found in the RR table
Generated prefetch: 1236608
Generated prefetch: 1240704
Address 3015 found in the RR table
Generated prefetch: 1244800
Generated prefetch: 1236672
Address 2818 found in the RR table
Generated prefetch: 1232576
Generated prefetch: 1240768
Generated prefetch: 1244864
Address 2871 found in the RR table
Generated prefetch: 1232640
Generated prefetch: 1236736
Generated prefetch: 1244928
Generated prefetch: 1240832
Generated prefetch: 1236800
Generated prefetch: 1232704
Generated prefetch: 1240896
Generated prefetch: 1244992
Address 2863 found in the RR table
Generated prefetch: 1232768
Generated prefetch: 1236864
Address 3051 found in the RR table
Generated prefetch: 1245056
Generated prefetch: 1240960
Generated prefetch: 1232832
Generated prefetch: 1236928
Address 2979 found in the RR table
Generated prefetch: 1241024
Generated prefetch: 1245120
Address 2911 found in the RR table
Prefetch not issued - Page crossed
Prefetch not issued - Page crossed
Prefetch not issued - Page crossed
Prefetch not issued - Page crossed
Prefetch not issued - Page crossed
Prefetch not issued - Page crossed
Prefetch not issued - Page crossed
Prefetch not issued - Page crossed
Prefetch not issued - Page crossed
Prefetch not issued - Page crossed
Prefetch not issued - Page crossed
Address 3068 found in the RR table
New best score is 11
Prefetch not issued - Page crossed
Generated prefetch: 1245376
Generated prefetch: 1249472
Generated prefetch: 1253568
Generated prefetch: 1257664
Generated prefetch: 1245440
Generated prefetch: 1249536
Generated prefetch: 1257728
Generated prefetch: 1253632
Generated prefetch: 1249600
Generated prefetch: 1245504
Generated prefetch: 1257792
Generated prefetch: 1253696
Generated prefetch: 1245568
Generated prefetch: 1249664
Generated prefetch: 1253760
Generated prefetch: 1257856
Generated prefetch: 1249728
Generated prefetch: 1245632
Generated prefetch: 1257920
Generated prefetch: 1253824
Address 3027 found in the RR table
Generated prefetch: 1245696
Generated prefetch: 1249792
Generated prefetch: 1253888
Address 3268 found in the RR table
Generated prefetch: 1257984
Generated prefetch: 1245760
Generated prefetch: 1249856
Address 3266 found in the RR table
Generated prefetch: 1258048
Generated prefetch: 1253952
Generated prefetch: 1249920
Address 3071 found in the RR table
Generated prefetch: 1245824
Generated prefetch: 1258112
Generated prefetch: 1254016
Generated prefetch: 1245888
Generated prefetch: 1249984
Generated prefetch: 1254080
Generated prefetch: 1258176
Generated prefetch: 1250048
Generated prefetch: 1245952
Generated prefetch: 1258240
Generated prefetch: 1254144
Generated prefetch: 1246016
Generated prefetch: 1250112
Generated prefetch: 1254208
Generated prefetch: 1258304
Generated prefetch: 1246080
Generated prefetch: 1250176
Generated prefetch: 1258368
Generated prefetch: 1254272
Generated prefetch: 1250240
Generated prefetch: 1246144
Generated prefetch: 1258432
Generated prefetch: 1254336
Generated prefetch: 1246208
Generated prefetch: 1250304
Address 3207 found in the RR table
Generated prefetch: 1254400
Generated prefetch: 1258496
Generated prefetch: 1250368
Generated prefetch: 1246272
Address 3266 found in the RR table
Generated prefetch: 1258560
Generated prefetch: 1254464
Address 3071 found in the RR table
Generated prefetch: 1246336
Generated prefetch: 1250432
Generated prefetch: 1254528
Generated prefetch: 1258624
Address 3063 found in the RR table
Generated prefetch: 1246400
Generated prefetch: 1250496
Generated prefetch: 1258688
Generated prefetch: 1254592
Generated prefetch: 1250560
Generated prefetch: 1246464
Generated prefetch: 1258752
Generated prefetch: 1254656
Generated prefetch: 1246528
Generated prefetch: 1250624
Generated prefetch: 1254720
Generated prefetch: 1258816
Address 3153 found in the RR table
Generated prefetch: 1250688
Generated prefetch: 1246592
Address 3279 found in the RR table
Generated prefetch: 1258880
Generated prefetch: 1254784
Generated prefetch: 1246656
Generated prefetch: 1250752
Address 3211 found in the RR table
Generated prefetch: 1254848
Generated prefetch: 1258944
Generated prefetch: 1246720
Generated prefetch: 1250816
Generated prefetch: 1259008
Generated prefetch: 1254912
Address 3138 found in the RR table
Generated prefetch: 1250880
Generated prefetch: 1246784
Generated prefetch: 1259072
Generated prefetch: 1254976
Generated prefetch: 1246848
Generated prefetch: 1250944
Generated prefetch: 1255040
Generated prefetch: 1259136
Generated prefetch: 1251008
Generated prefetch: 1246912
Generated prefetch: 1259200
Generated prefetch: 1255104
Generated prefetch: 1246976
Generated prefetch: 1251072
Generated prefetch: 1255168
Address 3286 found in the RR table
New best score is 12
Generated prefetch: 1259264
Generated prefetch: 1247040
Generated prefetch: 1251136
Generated prefetch: 1259328
Generated prefetch: 1255232
Generated prefetch: 1251200
Generated prefetch: 1247104
Address 3279 found in the RR table
Generated prefetch: 1259392
Generated prefetch: 1255296
Generated prefetch: 1247168
Generated prefetch: 1251264
Generated prefetch: 1255360
Generated prefetch: 1259456
Generated prefetch: 1251328
Address 3074 found in the RR table
Generated prefetch: 1247232
Generated prefetch: 1259520
Generated prefetch: 1255424
Generated prefetch: 1247296
Generated prefetch: 1251392
Generated prefetch: 1255488
Generated prefetch: 1259584
Generated prefetch: 1247360
Generated prefetch: 1251456
Generated prefetch: 1259648
Generated prefetch: 1255552
Address 3166 found in the RR table
Generated prefetch: 1251520
Address 3101 found in the RR table
New best score is 13
Generated prefetch: 1247424
Generated prefetch: 1259712
Address 3227 found in the RR table
Generated prefetch: 1255616
Address 3099 found in the RR table
Generated prefetch: 1247488
Generated prefetch: 1251584
Generated prefetch: 1255680
Address 3287 found in the RR table
Generated prefetch: 1259776
Generated prefetch: 1251648
Address 3091 found in the RR table
Generated prefetch: 1247552
Generated prefetch: 1259840
Generated prefetch: 1255744
Address 3087 found in the RR table
Generated prefetch: 1247616
Address 3147 found in the RR table
Generated prefetch: 1251712
Generated prefetch: 1255808
Generated prefetch: 1259904
Generated prefetch: 1247680
Generated prefetch: 1251776
Generated prefetch: 1259968
Generated prefetch: 1255872
Generated prefetch: 1251840
Generated prefetch: 1247744
Generated prefetch: 1260032
Generated prefetch: 1255936
Generated prefetch: 1247808
Generated prefetch: 1251904
Generated prefetch: 1256000
Address 3299 found in the RR table
New best score is 14
Generated prefetch: 1260096
Address 3171 found in the RR table
Generated prefetch: 1251968
Generated prefetch: 1247872
Generated prefetch: 1260160
Address 3231 found in the RR table
Generated prefetch: 1256064
Address 3103 found in the RR table
Generated prefetch: 1247936
Generated prefetch: 1252032
Generated prefetch: 1256128
Generated prefetch: 1260224
Generated prefetch: 1248000
Address 3159 found in the RR table
Generated prefetch: 1252096
Generated prefetch: 1260288
Generated prefetch: 1256192
Generated prefetch: 1252160
Address 3087 found in the RR table
Generated prefetch: 1248064
Generated prefetch: 1260352
Generated prefetch: 1256256
Address 3079 found in the RR table
Generated prefetch: 1248128
Generated prefetch: 1252224
Generated prefetch: 1256320
Generated prefetch: 1260416
Generated prefetch: 1252288
Generated prefetch: 1248192
Generated prefetch: 1260480
Generated prefetch: 1256384
Address 3115 found in the RR table
Generated prefetch: 1248256
Generated prefetch: 1252352
Generated prefetch: 1256448
Generated prefetch: 1260544
Generated prefetch: 1248320
Generated prefetch: 1252416
Generated prefetch: 1260608
Generated prefetch: 1256512
Address 3171 found in the RR table
Generated prefetch: 1252480
Generated prefetch: 1248384
Address 3295 found in the RR table
Generated prefetch: 1260672
Generated prefetch: 1256576
Generated prefetch: 1248448
Generated prefetch: 1252544
Address 3223 found in the RR table
Generated prefetch: 1256640
Generated prefetch: 1260736
Address 3155 found in the RR table
Generated prefetch: 1252608
Generated prefetch: 1248512
Generated prefetch: 1260800
Generated prefetch: 1256704
Generated prefetch: 1248576
Address 3138 found in the RR table
Generated prefetch: 1252672
Generated prefetch: 1256768
Generated prefetch: 1260864
Generated prefetch: 1248640
Generated prefetch: 1252736
Generated prefetch: 1260928
Address 3248 found in the RR table
New best score is 15
Generated prefetch: 1256832
Generated prefetch: 1252800
Address 3119 found in the RR table
Generated prefetch: 1248704
Generated prefetch: 1260992
Generated prefetch: 1256896
Generated prefetch: 1248768
Address 3179 found in the RR table
Generated prefetch: 1252864
Generated prefetch: 1256960
Generated prefetch: 1261056
Generated prefetch: 1252928
Generated prefetch: 1248832
Generated prefetch: 1261120
Generated prefetch: 1257024
Generated prefetch: 1248896
Generated prefetch: 1252992
Generated prefetch: 1257088
Address 3287 found in the RR table
Generated prefetch: 1261184
Generated prefetch: 1248960
Generated prefetch: 1253056
Address 3275 found in the RR table
Generated prefetch: 1261248
Generated prefetch: 1257152
Address 3143 found in the RR table
Generated prefetch: 1253120
Generated prefetch: 1249024
Generated prefetch: 1261312
Generated prefetch: 1257216
Address 3128 found in the RR table
Generated prefetch: 1249088
Address 3191 found in the RR table
New best score is 16
Generated prefetch: 1253184
Generated prefetch: 1257280
Generated prefetch: 1261376
Generated prefetch: 1253248
Address 3123 found in the RR table
Generated prefetch: 1249152
Generated prefetch: 1261440
Generated prefetch: 1257344
Generated prefetch: 1249216
Generated prefetch: 1253312
Generated prefetch: 1257408
Generated prefetch: 1261504
Prefetch not issued - Page crossed
Prefetch not issued - Page crossed
Prefetch not issued - Page crossed
Prefetch not issued - Page crossed
Prefetch not issued - Page crossed
Prefetch not issued - Page crossed
Prefetch not issued - Page crossed
Prefetch not issued - Page crossed
Prefetch not issued - Page crossed
Address 3151 found in the RR table
Prefetch not issued - Page crossed
Prefetch not issued - Page crossed
Prefetch not issued - Page crossed
Generated prefetch: 1261760
Generated prefetch: 1265856
Generated prefetch: 1269952
Generated prefetch: 1274048
Generated prefetch: 1265920
Generated prefetch: 1261824
Generated prefetch: 1274112
Generated prefetch: 1270016
Generated prefetch: 1265984
Generated prefetch: 1261888
Generated prefetch: 1270080
Generated prefetch: 1274176
Address 3315 found in the RR table
Generated prefetch: 1261952
Generated prefetch: 1266048
Generated prefetch: 1270144
Generated prefetch: 1274240
Generated prefetch: 1266112
Generated prefetch: 1262016
Generated prefetch: 1274304
Generated prefetch: 1270208
Generated prefetch: 1262080
Generated prefetch: 1266176
Generated prefetch: 1270272
Generated prefetch: 1274368
Generated prefetch: 1266240
Generated prefetch: 1262144
Generated prefetch: 1274432
Generated prefetch: 1270336
Generated prefetch: 1266304
Generated prefetch: 1262208
Generated prefetch: 1270400
Address 3522 found in the RR table
Generated prefetch: 1274496
Address 3330 found in the RR table
Generated prefetch: 1262272
Generated prefetch: 1266368
Generated prefetch: 1270464
Generated prefetch: 1274560
Generated prefetch: 1266432
Generated prefetch: 1262336
Generated prefetch: 1274624
Generated prefetch: 1270528
Generated prefetch: 1262400
Generated prefetch: 1266496
Generated prefetch: 1270592
Generated prefetch: 1274688
Generated prefetch: 1266560
Address 3307 found in the RR table
Generated prefetch: 1262464
Generated prefetch: 1274752
Generated prefetch: 1270656
Generated prefetch: 1266624
Generated prefetch: 1262528
Generated prefetch: 1270720
Generated prefetch: 1274816
Generated prefetch: 1262592
Generated prefetch: 1266688
Generated prefetch: 1270784
Address 3530 found in the RR table
New best score is 17
Generated prefetch: 1274880
Generated prefetch: 1266752
Generated prefetch: 1262656
Generated prefetch: 1274944
Generated prefetch: 1270848
Generated prefetch: 1262720
Generated prefetch: 1266816
Generated prefetch: 1270912
Generated prefetch: 1275008
Generated prefetch: 1266880
Generated prefetch: 1262784
Generated prefetch: 1275072
Generated prefetch: 1270976
Generated prefetch: 1266944
Generated prefetch: 1262848
Generated prefetch: 1271040
Generated prefetch: 1275136
Generated prefetch: 1262912
Generated prefetch: 1267008
Generated prefetch: 1271104
Generated prefetch: 1275200
Generated prefetch: 1267072
Generated prefetch: 1262976
Generated prefetch: 1275264
Generated prefetch: 1271168
Address 3346 found in the RR table
Generated prefetch: 1263040
Address 3409 found in the RR table
New best score is 18
Generated prefetch: 1267136
Generated prefetch: 1271232
Address 3535 found in the RR table
Generated prefetch: 1275328
Address 3407 found in the RR table
Generated prefetch: 1267200
Generated prefetch: 1263104
Generated prefetch: 1275392
Address 3467 found in the RR table
Generated prefetch: 1271296
Generated prefetch: 1267264
Address 3335 found in the RR table
Generated prefetch: 1263168
Generated prefetch: 1271360
Generated prefetch: 1275456
Generated prefetch: 1263232
Generated prefetch: 1267328
Generated prefetch: 1271424
Generated prefetch: 1275520
Generated prefetch: 1267392
Generated prefetch: 1263296
Generated prefetch: 1275584
Generated prefetch: 1271488
Generated prefetch: 1263360
Generated prefetch: 1267456
Generated prefetch: 1271552
Generated prefetch: 1275648
Generated prefetch: 1267520
Generated prefetch: 1263424
Generated prefetch: 1275712
Address 3479 found in the RR table
New best score is 19
Generated prefetch: 1271616
Address 3415 found in the RR table
Generated prefetch: 1267584
Generated prefetch: 1263488
Generated prefetch: 1271680
Address 3539 found in the RR table
Generated prefetch: 1275776
Address 3347 found in the RR table
Generated prefetch: 1263552
Generated prefetch: 1267648
Generated prefetch: 1271744
Generated prefetch: 1275840
Generated prefetch: 1267712
Address 3339 found in the RR table
Generated prefetch: 1263616
Generated prefetch: 1275904
Generated prefetch: 1271808
Generated prefetch: 1263680
Generated prefetch: 1267776
Generated prefetch: 1271872
Generated prefetch: 1275968
Generated prefetch: 1267840
Address 3319 found in the RR table
Generated prefetch: 1263744
Generated prefetch: 1276032
Generated prefetch: 1271936
Generated prefetch: 1267904
Generated prefetch: 1263808
Generated prefetch: 1272000
Generated prefetch: 1276096
Address 3359 found in the RR table
Generated prefetch: 1263872
Generated prefetch: 1267968
Generated prefetch: 1272064
Generated prefetch: 1276160
Generated prefetch: 1268032
Generated prefetch: 1263936
Generated prefetch: 1276224
Generated prefetch: 1272128
Address 3351 found in the RR table
Generated prefetch: 1264000
Generated prefetch: 1268096
Address 3475 found in the RR table
Generated prefetch: 1272192
Generated prefetch: 1276288
Generated prefetch: 1268160
Generated prefetch: 1264064
Address 3531 found in the RR table
Generated prefetch: 1276352
Generated prefetch: 1272256
Address 3399 found in the RR table
Generated prefetch: 1268224
Generated prefetch: 1264128
Generated prefetch: 1272320
Generated prefetch: 1276416
Generated prefetch: 1264192
Generated prefetch: 1268288
Generated prefetch: 1272384
Generated prefetch: 1276480
Generated prefetch: 1268352
Generated prefetch: 1264256
Generated prefetch: 1276544
Address 3492 found in the RR table
New best score is 20
Generated prefetch: 1272448
Generated prefetch: 1264320
Address 3427 found in the RR table
Generated prefetch: 1268416
Generated prefetch: 1272512
Generated prefetch: 1276608
Generated prefetch: 1268480
Address 3359 found in the RR table
Generated prefetch: 1264384
Generated prefetch: 1276672
Generated prefetch: 1272576
Generated prefetch: 1268544
Generated prefetch: 1264448
Generated prefetch: 1272640
Generated prefetch: 1276736
Generated prefetch: 1264512
Generated prefetch: 1268608
Generated prefetch: 1272704
Address 3531 found in the RR table
Generated prefetch: 1276800
Generated prefetch: 1268672
Generated prefetch: 1264576
Generated prefetch: 1276864
Generated prefetch: 1272768
Address 3323 found in the RR table
Generated prefetch: 1264640
Generated prefetch: 1268736
Generated prefetch: 1272832
Generated prefetch: 1276928
Address 3436 found in the RR table
Generated prefetch: 1268800
Address 3371 found in the RR table
New best score is 21
Generated prefetch: 1264704
Generated prefetch: 1276992
Generated prefetch: 1272896
Generated prefetch: 1268864
Address 3367 found in the RR table
Generated prefetch: 1264768
Generated prefetch: 1272960
Generated prefetch: 1277056
Generated prefetch: 1264832
Generated prefetch: 1268928
Generated prefetch: 1273024
Generated prefetch: 1277120
Generated prefetch: 1268992
Generated prefetch: 1264896
Generated prefetch: 1277184
Generated prefetch: 1273088
Generated prefetch: 1264960
Generated prefetch: 1269056
Generated prefetch: 1273152
Generated prefetch: 1277248
Generated prefetch: 1269120
Generated prefetch: 1265024
Generated prefetch: 1277312
Generated prefetch: 1273216
Generated prefetch: 1269184
Generated prefetch: 1265088
Generated prefetch: 1273280
Address 3569 found in the RR table
New best score is 22
Generated prefetch: 1277376
Generated prefetch: 1265152
Generated prefetch: 1269248
Address 3503 found in the RR table
Generated prefetch: 1273344
Generated prefetch: 1277440
Generated prefetch: 1269312
Generated prefetch: 1265216
Generated prefetch: 1277504
Address 3495 found in the RR table
Generated prefetch: 1273408
Address 3367 found in the RR table
Generated prefetch: 1265280
Generated prefetch: 1269376
Address 3491 found in the RR table
Generated prefetch: 1273472
Address 3551 found in the RR table
Generated prefetch: 1277568
Address 3423 found in the RR table
Generated prefetch: 1269440
Generated prefetch: 1265344
Generated prefetch: 1277632
Generated prefetch: 1273536
Generated prefetch: 1269504
Generated prefetch: 1265408
Generated prefetch: 1273600
Generated prefetch: 1277696
Generated prefetch: 1265472
Generated prefetch: 1269568
Generated prefetch: 1273664
Generated prefetch: 1277760
Address 3449 found in the RR table
Generated prefetch: 1269632
Generated prefetch: 1265536
Address 3575 found in the RR table
Generated prefetch: 1277824
Generated prefetch: 1273728
Generated prefetch: 1265600
Generated prefetch: 1269696
Address 3507 found in the RR table
Generated prefetch: 1273792
Generated prefetch: 1277888
Prefetch not issued - Page crossed
Prefetch not issued - Page crossed
Prefetch not issued - Page crossed
Address 3499 found in the RR table
Prefetch not issued - Page crossed
Prefetch not issued - Page crossed
Prefetch not issued - Page crossed
Prefetch not issued - Page crossed
Address 3555 found in the RR table
Prefetch not issued - Page crossed
Prefetch not issued - Page crossed
Address 3423 found in the RR table
Prefetch not issued - Page crossed
Address 3483 found in the RR table
Prefetch not issued - Page crossed
Address 3543 found in the RR table
Prefetch not issued - Page crossed
Address 3539 found in the RR table
Generated prefetch: 1278144
Generated prefetch: 1282240
Generated prefetch: 1286336
Generated prefetch: 1290432
Generated prefetch: 1282304
Generated prefetch: 1278208
Generated prefetch: 1290496
Generated prefetch: 1286400
Generated prefetch: 1278272
Generated prefetch: 1282368
Generated prefetch: 1286464
Generated prefetch: 1290560
Generated prefetch: 1278336
Generated prefetch: 1282432
Generated prefetch: 1290624
Generated prefetch: 1286528
Generated prefetch: 1282496
Generated prefetch: 1278400
Generated prefetch: 1290688
Generated prefetch: 1286592
Generated prefetch: 1278464
Generated prefetch: 1282560
Generated prefetch: 1286656
Generated prefetch: 1290752
Generated prefetch: 1282624
Generated prefetch: 1278528
Generated prefetch: 1290816
Generated prefetch: 1286720
Generated prefetch: 1278592
Generated prefetch: 1282688
Generated prefetch: 1286784
Generated prefetch: 1290880
Address 3590 found in the RR table
Generated prefetch: 1278656
Generated prefetch: 1282752
Generated prefetch: 1290944
Generated prefetch: 1286848
Generated prefetch: 1282816
Generated prefetch: 1278720
Generated prefetch: 1291008
Generated prefetch: 1286912
Generated prefetch: 1278784
Generated prefetch: 1282880
Generated prefetch: 1286976
Generated prefetch: 1291072
Generated prefetch: 1282944
Address 3571 found in the RR table
Generated prefetch: 1278848
Generated prefetch: 1291136
Generated prefetch: 1287040
Generated prefetch: 1278912
Generated prefetch: 1283008
Generated prefetch: 1287104
Generated prefetch: 1291200
Generated prefetch: 1278976
Generated prefetch: 1283072
Generated prefetch: 1291264
Generated prefetch: 1287168
Generated prefetch: 1283136
Generated prefetch: 1279040
Generated prefetch: 1291328
Address 3723 found in the RR table
New best score is 23
Generated prefetch: 1287232
Address 3595 found in the RR table
Generated prefetch: 1279104
Generated prefetch: 1283200
Generated prefetch: 1287296
Address 3783 found in the RR table
Generated prefetch: 1291392
Address 3655 found in the RR table
Generated prefetch: 1283264
Generated prefetch: 1279168
Generated prefetch: 1291456
Generated prefetch: 1287360
Generated prefetch: 1279232
Generated prefetch: 1283328
Generated prefetch: 1287424
Generated prefetch: 1291520
Generated prefetch: 1279296
Generated prefetch: 1283392
Generated prefetch: 1291584
Generated prefetch: 1287488
Generated prefetch: 1283456
Address 3563 found in the RR table
Generated prefetch: 1279360
Generated prefetch: 1291648
Generated prefetch: 1287552
Generated prefetch: 1279424
Generated prefetch: 1283520
Generated prefetch: 1287616
Generated prefetch: 1291712
Address 3667 found in the RR table
Generated prefetch: 1283584
Generated prefetch: 1279488
Generated prefetch: 1291776
Generated prefetch: 1287680
Generated prefetch: 1279552
Generated prefetch: 1283648
Generated prefetch: 1287744
Generated prefetch: 1291840
Address 3595 found in the RR table
Generated prefetch: 1279616
Generated prefetch: 1283712
Address 3783 found in the RR table
Generated prefetch: 1291904
Generated prefetch: 1287808
Generated prefetch: 1283776
Generated prefetch: 1279680
Generated prefetch: 1291968
Generated prefetch: 1287872
Address 3579 found in the RR table
Generated prefetch: 1279744
Generated prefetch: 1283840
Generated prefetch: 1287936
Generated prefetch: 1292032
Generated prefetch: 1283904
Generated prefetch: 1279808
Generated prefetch: 1292096
Generated prefetch: 1288000
Generated prefetch: 1279872
Generated prefetch: 1283968
Generated prefetch: 1288064
Address 3800 found in the RR table
New best score is 24
Generated prefetch: 1292160
Generated prefetch: 1279936
Address 3671 found in the RR table
Generated prefetch: 1284032
Generated prefetch: 1292224
Generated prefetch: 1288128
Generated prefetch: 1284096
Address 3603 found in the RR table
Generated prefetch: 1280000
Generated prefetch: 1292288
Generated prefetch: 1288192
Generated prefetch: 1280064
Generated prefetch: 1284160
Generated prefetch: 1288256
Generated prefetch: 1292352
Generated prefetch: 1284224
Generated prefetch: 1280128
Generated prefetch: 1292416
Generated prefetch: 1288320
Generated prefetch: 1280192
Generated prefetch: 1284288
Generated prefetch: 1288384
Generated prefetch: 1292480
Address 3567 found in the RR table
Generated prefetch: 1280256
Generated prefetch: 1284352
Generated prefetch: 1292544
Generated prefetch: 1288448
Address 3680 found in the RR table
Generated prefetch: 1284416
Address 3615 found in the RR table
New best score is 25
Generated prefetch: 1280320
Generated prefetch: 1292608
Generated prefetch: 1288512
Generated prefetch: 1280384
Address 3675 found in the RR table
Generated prefetch: 1284480
Generated prefetch: 1288576
Generated prefetch: 1292672
Generated prefetch: 1284544
Generated prefetch: 1280448
Generated prefetch: 1292736
Generated prefetch: 1288640
Generated prefetch: 1280512
Generated prefetch: 1284608
Generated prefetch: 1288704
Generated prefetch: 1292800
Generated prefetch: 1280576
Generated prefetch: 1284672
Address 3778 found in the RR table
Generated prefetch: 1292864
Generated prefetch: 1288768
Generated prefetch: 1284736
Address 3575 found in the RR table
Generated prefetch: 1280640
Generated prefetch: 1292928
Generated prefetch: 1288832
Generated prefetch: 1280704
Generated prefetch: 1284800
Generated prefetch: 1288896
Generated prefetch: 1292992
Generated prefetch: 1284864
Generated prefetch: 1280768
Address 3811 found in the RR table
Generated prefetch: 1293056
Generated prefetch: 1288960
Generated prefetch: 1280832
Generated prefetch: 1284928
Generated prefetch: 1289024
Address 3803 found in the RR table
Generated prefetch: 1293120
Address 3611 found in the RR table
Generated prefetch: 1280896
Generated prefetch: 1284992
Address 3799 found in the RR table
Generated prefetch: 1293184
Address 3731 found in the RR table
Generated prefetch: 1289088
Address 3667 found in the RR table
Generated prefetch: 1285056
Generated prefetch: 1280960
Generated prefetch: 1293248
Generated prefetch: 1289152
Generated prefetch: 1281024
Generated prefetch: 1285120
Generated prefetch: 1289216
Generated prefetch: 1293312
Generated prefetch: 1285184
Generated prefetch: 1281088
Generated prefetch: 1293376
Generated prefetch: 1289280
Address 3629 found in the RR table
Generated prefetch: 1281152
Generated prefetch: 1285248
Address 3755 found in the RR table
Generated prefetch: 1289344
Generated prefetch: 1293440
Generated prefetch: 1281216
Generated prefetch: 1285312
Address 3815 found in the RR table
Generated prefetch: 1293504
Generated prefetch: 1289408
Generated prefetch: 1285376
Generated prefetch: 1281280
Generated prefetch: 1293568
Address 3743 found in the RR table
Generated prefetch: 1289472
Generated prefetch: 1281344
Generated prefetch: 1285440
Generated prefetch: 1289536
Address 3799 found in the RR table
Generated prefetch: 1293632
Generated prefetch: 1285504
Address 3603 found in the RR table
Generated prefetch: 1281408
Address 3791 found in the RR table
Generated prefetch: 1293696
Address 3723 found in the RR table
Generated prefetch: 1289600
Address 3591 found in the RR table
Generated prefetch: 1281472
Generated prefetch: 1285568
Address 3714 found in the RR table
Generated prefetch: 1289664
Generated prefetch: 1293760
Generated prefetch: 1281536
Generated prefetch: 1285632
Generated prefetch: 1293824
Address 3762 found in the RR table
New best score is 26
Generated prefetch: 1289728
Generated prefetch: 1285696
Generated prefetch: 1281600
Generated prefetch: 1293888
Generated prefetch: 1289792
Generated prefetch: 1281664
Generated prefetch: 1285760
Address 3755 found in the RR table
Generated prefetch: 1289856
Generated prefetch: 1293952
Generated prefetch: 1285824
Generated prefetch: 1281728
Generated prefetch: 1294016
Generated prefetch: 1289920
Generated prefetch: 1281792
Generated prefetch: 1285888
Address 3739 found in the RR table
Generated prefetch: 1289984
Generated prefetch: 1294080
Generated prefetch: 1281856
Generated prefetch: 1285952
Generated prefetch: 1294144
Generated prefetch: 1290048
Generated prefetch: 1286016
Generated prefetch: 1281920
Generated prefetch: 1294208
Generated prefetch: 1290112
Address 3642 found in the RR table
Generated prefetch: 1281984
Address 3705 found in the RR table
New best score is 27
Generated prefetch: 1286080
Generated prefetch: 1290176
Address 3831 found in the RR table
Generated prefetch: 1294272
Address 3703 found in the RR table
Prefetch not issued - Page crossed
Prefetch not issued - Page crossed
Prefetch not issued - Page crossed
Address 3763 found in the RR table
Prefetch not issued - Page crossed
Prefetch not issued - Page crossed
Address 3695 found in the RR table
Prefetch not issued - Page crossed
Prefetch not issued - Page crossed
Prefetch not issued - Page crossed
Address 3627 found in the RR table
Prefetch not issued - Page crossed
Address 3687 found in the RR table
Prefetch not issued - Page crossed
Prefetch not issued - Page crossed
Prefetch not issued - Page crossed
Generated prefetch: 1294528
Generated prefetch: 1298624
Generated prefetch: 1302720
Generated prefetch: 1306816
Generated prefetch: 1298688
Generated prefetch: 1294592
Generated prefetch: 1306880
Generated prefetch: 1302784
Generated prefetch: 1294656
Generated prefetch: 1298752
Generated prefetch: 1302848
Generated prefetch: 1306944
Generated prefetch: 1298816
Generated prefetch: 1294720
Generated prefetch: 1307008
Generated prefetch: 1302912
Generated prefetch: 1298880
Generated prefetch: 1294784
Generated prefetch: 1302976
Generated prefetch: 1307072
Generated prefetch: 1294848
Generated prefetch: 1298944
Generated prefetch: 1303040
Generated prefetch: 1307136
Generated prefetch: 1299008
Address 3819 found in the RR table
Generated prefetch: 1294912
Generated prefetch: 1307200
Generated prefetch: 1303104
Address 3811 found in the RR table
Generated prefetch: 1294976
Generated prefetch: 1299072
Generated prefetch: 1303168
Generated prefetch: 1307264
Generated prefetch: 1299136
Generated prefetch: 1295040
Generated prefetch: 1307328
Generated prefetch: 1303232
Address 3911 found in the RR table
Generated prefetch: 1299200
Generated prefetch: 1295104
Generated prefetch: 1303296
Generated prefetch: 1307392
Generated prefetch: 1295168
Address 3906 found in the RR table
Generated prefetch: 1299264
Generated prefetch: 1303360
Generated prefetch: 1307456
Generated prefetch: 1299328
Generated prefetch: 1295232
Generated prefetch: 1307520
Generated prefetch: 1303424
Generated prefetch: 1295296
Generated prefetch: 1299392
Generated prefetch: 1303488
Generated prefetch: 1307584
Generated prefetch: 1299456
Generated prefetch: 1295360
Generated prefetch: 1307648
Generated prefetch: 1303552
Generated prefetch: 1299520
Generated prefetch: 1295424
Generated prefetch: 1303616
Generated prefetch: 1307712
Address 3795 found in the RR table
Generated prefetch: 1295488
Generated prefetch: 1299584
Generated prefetch: 1303680
Address 4044 found in the RR table
New best score is 28
Generated prefetch: 1307776
Generated prefetch: 1299648
Address 3851 found in the RR table
Generated prefetch: 1295552
Generated prefetch: 1307840
Generated prefetch: 1303744
Generated prefetch: 1295616
Address 3911 found in the RR table
Generated prefetch: 1299712
Generated prefetch: 1303808
Address 4034 found in the RR table
Generated prefetch: 1307904
Address 3906 found in the RR table
Generated prefetch: 1299776
Generated prefetch: 1295680
Generated prefetch: 1307968
Generated prefetch: 1303872
Generated prefetch: 1299840
Generated prefetch: 1295744
Generated prefetch: 1303936
Generated prefetch: 1308032
Generated prefetch: 1295808
Generated prefetch: 1299904
Generated prefetch: 1304000
Generated prefetch: 1308096
Generated prefetch: 1299968
Address 3807 found in the RR table
Generated prefetch: 1295872
Generated prefetch: 1308160
Generated prefetch: 1304064
Address 3860 found in the RR table
Generated prefetch: 1295936
Address 3923 found in the RR table
New best score is 29
Generated prefetch: 1300032
Generated prefetch: 1304128
Generated prefetch: 1308224
Generated prefetch: 1300096
Address 3855 found in the RR table
Generated prefetch: 1296000
Generated prefetch: 1308288
Generated prefetch: 1304192
Generated prefetch: 1300160
Generated prefetch: 1296064
Generated prefetch: 1304256
Generated prefetch: 1308352
Generated prefetch: 1296128
Generated prefetch: 1300224
Generated prefetch: 1304320
Generated prefetch: 1308416
Generated prefetch: 1300288
Generated prefetch: 1296192
Generated prefetch: 1308480
Generated prefetch: 1304384
Generated prefetch: 1296256
Generated prefetch: 1300352
Generated prefetch: 1304448
Generated prefetch: 1308544
Generated prefetch: 1300416
Generated prefetch: 1296320
Generated prefetch: 1308608
Generated prefetch: 1304512
Generated prefetch: 1300480
Generated prefetch: 1296384
Address 3991 found in the RR table
Generated prefetch: 1304576
Generated prefetch: 1308672
Generated prefetch: 1296448
Generated prefetch: 1300544
Generated prefetch: 1304640
Address 4047 found in the RR table
Generated prefetch: 1308736
Address 3919 found in the RR table
Generated prefetch: 1300608
Generated prefetch: 1296512
Address 4043 found in the RR table
Generated prefetch: 1308800
Address 3975 found in the RR table
Generated prefetch: 1304704
Address 3847 found in the RR table
Generated prefetch: 1296576
Generated prefetch: 1300672
Address 3970 found in the RR table
Generated prefetch: 1304768
Generated prefetch: 1308864
Generated prefetch: 1300736
Generated prefetch: 1296640
Generated prefetch: 1308928
Generated prefetch: 1304832
Generated prefetch: 1300800
Generated prefetch: 1296704
Generated prefetch: 1304896
Generated prefetch: 1308992
Address 3873 found in the RR table
Generated prefetch: 1296768
Generated prefetch: 1300864
Address 3999 found in the RR table
Generated prefetch: 1304960
Generated prefetch: 1309056
Generated prefetch: 1300928
Generated prefetch: 1296832
Address 4059 found in the RR table
Generated prefetch: 1309120
Generated prefetch: 1305024
Generated prefetch: 1296896
Generated prefetch: 1300992
Generated prefetch: 1305088
Address 4051 found in the RR table
Generated prefetch: 1309184
Generated prefetch: 1301056
Generated prefetch: 1296960
Generated prefetch: 1309248
Address 3979 found in the RR table
Generated prefetch: 1305152
Generated prefetch: 1301120
Address 3847 found in the RR table
Generated prefetch: 1297024
Generated prefetch: 1305216
Generated prefetch: 1309312
Address 3835 found in the RR table
Generated prefetch: 1297088
Generated prefetch: 1301184
Generated prefetch: 1305280
Generated prefetch: 1309376
Generated prefetch: 1301248
Generated prefetch: 1297152
Generated prefetch: 1309440
Address 4006 found in the RR table
New best score is 30
Generated prefetch: 1305344
Generated prefetch: 1297216
Generated prefetch: 1301312
Generated prefetch: 1305408
Generated prefetch: 1309504
Generated prefetch: 1301376
Generated prefetch: 1297280
Address 4063 found in the RR table
Generated prefetch: 1309568
Generated prefetch: 1305472
Generated prefetch: 1301440
Generated prefetch: 1297344
Generated prefetch: 1305536
Generated prefetch: 1309632
Generated prefetch: 1297408
Generated prefetch: 1301504
Address 3983 found in the RR table
Generated prefetch: 1305600
Generated prefetch: 1309696
Generated prefetch: 1301568
Generated prefetch: 1297472
Generated prefetch: 1309760
Generated prefetch: 1305664
Generated prefetch: 1297536
Generated prefetch: 1301632
Generated prefetch: 1305728
Generated prefetch: 1309824
Address 3950 found in the RR table
Generated prefetch: 1301696
Address 3885 found in the RR table
New best score is 31
New best offset is 3
Generated prefetch: 1297600
Generated prefetch: 1309888
Address 4011 found in the RR table
New best score is 1
Generated prefetch: 1305792
Address 3947 found in the RR table
Generated prefetch: 1301760
Generated prefetch: 1297664
Generated prefetch: 1305856
Address 4071 found in the RR table
Generated prefetch: 1309952
Generated prefetch: 1297728
Address 3939 found in the RR table
Generated prefetch: 1301824
Generated prefetch: 1305920
Generated prefetch: 1310016
Address 3935 found in the RR table
Generated prefetch: 1301888
Address 3867 found in the RR table
Generated prefetch: 1297792
Generated prefetch: 1310080
Generated prefetch: 1305984
Generated prefetch: 1297856
Generated prefetch: 1301952
Generated prefetch: 1306048
Generated prefetch: 1310144
Generated prefetch: 1302016
Generated prefetch: 1297920
Generated prefetch: 1310208
Generated prefetch: 1306112
Generated prefetch: 1302080
Generated prefetch: 1297984
Generated prefetch: 1306176
Address 4083 found in the RR table
Generated prefetch: 1310272
Address 3891 found in the RR table
Generated prefetch: 1298048
Generated prefetch: 1302144
Generated prefetch: 1306240
Address 4079 found in the RR table
Generated prefetch: 1310336
Address 3951 found in the RR table
Generated prefetch: 1302208
Generated prefetch: 1298112
Generated prefetch: 1310400
Generated prefetch: 1306304
Generated prefetch: 1298176
Address 3943 found in the RR table
Generated prefetch: 1302272
Generated prefetch: 1306368
Generated prefetch: 1310464
Generated prefetch: 1302336
Address 3871 found in the RR table
Generated prefetch: 1298240
Generated prefetch: 1310528
Generated prefetch: 1306432
Address 3927 found in the RR table
Generated prefetch: 1302400
Address 3859 found in the RR table
Generated prefetch: 1298304
Generated prefetch: 1306496
Address 4043 found in the RR table
Generated prefetch: 1310592
Generated prefetch: 1298368
Generated prefetch: 1302464
Generated prefetch: 1306560
Generated prefetch: 1310656
Address 3963 found in the RR table
Prefetch not issued - Page crossed
Prefetch not issued - Page crossed
Prefetch not issued - Page crossed
Prefetch not issued - Page crossed
Prefetch not issued - Page crossed
Prefetch not issued - Page crossed
Prefetch not issued - Page crossed
Prefetch not issued - Page crossed
Address 3955 found in the RR table
Prefetch not issued - Page crossed
Prefetch not issued - Page crossed
Address 4079 found in the RR table
Prefetch not issued - Page crossed
Prefetch not issued - Page crossed
Generated prefetch: 1310912
Generated prefetch: 1315008
Generated prefetch: 1319104
Generated prefetch: 1323200
Generated prefetch: 1315072
Generated prefetch: 1319168
Generated prefetch: 1323264
Generated prefetch: 1310976
Generated prefetch: 1311040
Generated prefetch: 1315136
Generated prefetch: 1323328
Generated prefetch: 1319232
Generated prefetch: 1315200
Generated prefetch: 1311104
Generated prefetch: 1319296
Address 192 found in the RR table
New best score is 2
Generated prefetch: 1323392
Generated prefetch: 1311168
Generated prefetch: 1315264
Generated prefetch: 1323456
Generated prefetch: 1319360
Generated prefetch: 1311232
Generated prefetch: 1315328
Generated prefetch: 1319424
Generated prefetch: 1323520
Generated prefetch: 1315392
Generated prefetch: 1311296
Generated prefetch: 1319488
Generated prefetch: 1323584
Generated prefetch: 1311360
Generated prefetch: 1315456
Generated prefetch: 1323648
Generated prefetch: 1319552
Generated prefetch: 1315520
Generated prefetch: 1311424
Generated prefetch: 1319616
Generated prefetch: 1323712
Address 4055 found in the RR table
Generated prefetch: 1311488
Generated prefetch: 1315584
Generated prefetch: 1323776
Generated prefetch: 1319680
Address 8 found in the RR table
Generated prefetch: 1311552
Address 71 found in the RR table
New best score is 3
Generated prefetch: 1315648
Generated prefetch: 1319744
Generated prefetch: 1323840
Generated prefetch: 1315712
Generated prefetch: 1311616
Address 130 found in the RR table
Generated prefetch: 1319808
Generated prefetch: 1323904
Generated prefetch: 1311680
Generated prefetch: 1315776
Generated prefetch: 1323968
Generated prefetch: 1319872
Generated prefetch: 1315840
Generated prefetch: 1311744
Generated prefetch: 1319936
Generated prefetch: 1324032
Generated prefetch: 1311808
Generated prefetch: 1315904
Generated prefetch: 1324096
Generated prefetch: 1320000
Generated prefetch: 1311872
Generated prefetch: 1315968
Generated prefetch: 1320064
Generated prefetch: 1324160
Generated prefetch: 1316032
Generated prefetch: 1311936
Generated prefetch: 1320128
Address 205 found in the RR table
New best score is 4
Generated prefetch: 1324224
Generated prefetch: 1312000
Generated prefetch: 1316096
Address 203 found in the RR table
Generated prefetch: 1324288
Generated prefetch: 1320192
Generated prefetch: 1316160
Generated prefetch: 1312064
Generated prefetch: 1320256
Generated prefetch: 1324352
Generated prefetch: 1312128
Generated prefetch: 1316224
Generated prefetch: 1324416
Generated prefetch: 1320320
Generated prefetch: 1312192
Generated prefetch: 1316288
Generated prefetch: 1320384
Generated prefetch: 1324480
Generated prefetch: 1316352
Generated prefetch: 1312256
Generated prefetch: 1320448
Generated prefetch: 1324544
Generated prefetch: 1312320
Generated prefetch: 1316416
Generated prefetch: 1324608
Generated prefetch: 1320512
Address 85 found in the RR table
Generated prefetch: 1316480
Generated prefetch: 1312384
Address 147 found in the RR table
Generated prefetch: 1320576
Generated prefetch: 1324672
Generated prefetch: 1312448
Generated prefetch: 1316544
Address 207 found in the RR table
Generated prefetch: 1324736
Generated prefetch: 1320640
Generated prefetch: 1312512
Generated prefetch: 1316608
Generated prefetch: 1320704
Address 199 found in the RR table
Generated prefetch: 1324800
Generated prefetch: 1316672
Address 2 found in the RR table
Generated prefetch: 1312576
Generated prefetch: 1320768
Generated prefetch: 1324864
Generated prefetch: 1312640
Generated prefetch: 1316736
Generated prefetch: 1324928
Generated prefetch: 1320832
Generated prefetch: 1316800
Generated prefetch: 1312704
Generated prefetch: 1320896
Generated prefetch: 1324992
Generated prefetch: 1312768
Generated prefetch: 1316864
Generated prefetch: 1325056
Address 154 found in the RR table
New best score is 5
Generated prefetch: 1320960
Generated prefetch: 1312832
Generated prefetch: 1316928
Generated prefetch: 1321024
Generated prefetch: 1325120
Generated prefetch: 1316992
Generated prefetch: 1312896
Address 147 found in the RR table
Generated prefetch: 1321088
Generated prefetch: 1325184
Generated prefetch: 1312960
Generated prefetch: 1317056
Generated prefetch: 1325248
Generated prefetch: 1321152
Generated prefetch: 1317120
Generated prefetch: 1313024
Generated prefetch: 1321216
Generated prefetch: 1325312
Generated prefetch: 1313088
Generated prefetch: 1317184
Generated prefetch: 1325376
Generated prefetch: 1321280
Generated prefetch: 1313152
Generated prefetch: 1317248
Generated prefetch: 1321344
Generated prefetch: 1325440
Address 98 found in the RR table
Generated prefetch: 1317312
Address 33 found in the RR table
New best score is 6
Generated prefetch: 1313216
Generated prefetch: 1321408
Address 223 found in the RR table
Generated prefetch: 1325504
Address 31 found in the RR table
Generated prefetch: 1313280
Generated prefetch: 1317376
Generated prefetch: 1325568
Address 155 found in the RR table
Generated prefetch: 1321472
Generated prefetch: 1317440
Address 23 found in the RR table
Generated prefetch: 1313344
Generated prefetch: 1321536
Generated prefetch: 1325632
Address 19 found in the RR table
Generated prefetch: 1313408
Address 79 found in the RR table
Generated prefetch: 1317504
Generated prefetch: 1325696
Generated prefetch: 1321600
Generated prefetch: 1313472
Generated prefetch: 1317568
Generated prefetch: 1321664
Generated prefetch: 1325760
Generated prefetch: 1317632
Generated prefetch: 1313536
Generated prefetch: 1321728
Generated prefetch: 1325824
Generated prefetch: 1313600
Generated prefetch: 1317696
Generated prefetch: 1325888
Address 167 found in the RR table
New best score is 7
Generated prefetch: 1321792
Address 103 found in the RR table
Generated prefetch: 1317760
Generated prefetch: 1313664
Generated prefetch: 1321856
Address 227 found in the RR table
Generated prefetch: 1325952
Address 35 found in the RR table
Generated prefetch: 1313728
Generated prefetch: 1317824
Generated prefetch: 1326016
Generated prefetch: 1321920
Generated prefetch: 1313792
Address 91 found in the RR table
Generated prefetch: 1317888
Generated prefetch: 1321984
Generated prefetch: 1326080
Generated prefetch: 1317952
Address 19 found in the RR table
Generated prefetch: 1313856
Generated prefetch: 1322048
Generated prefetch: 1326144
Address 11 found in the RR table
Generated prefetch: 1313920
Address 71 found in the RR table
Generated prefetch: 1318016
Address 194 found in the RR table
Generated prefetch: 1326208
Generated prefetch: 1322112
Generated prefetch: 1318080
Generated prefetch: 1313984
Generated prefetch: 1322176
Generated prefetch: 1326272
Address 47 found in the RR table
Generated prefetch: 1314048
Generated prefetch: 1318144
Generated prefetch: 1326336
Generated prefetch: 1322240
Generated prefetch: 1314112
Generated prefetch: 1318208
Generated prefetch: 1322304
Generated prefetch: 1326400
Address 103 found in the RR table
Generated prefetch: 1318272
Generated prefetch: 1314176
Address 163 found in the RR table
Generated prefetch: 1322368
Generated prefetch: 1326464
Generated prefetch: 1314240
Generated prefetch: 1318336
Address 219 found in the RR table
Generated prefetch: 1326528
Generated prefetch: 1322432
Address 87 found in the RR table
Generated prefetch: 1318400
Generated prefetch: 1314304
Generated prefetch: 1322496
Generated prefetch: 1326592
Generated prefetch: 1314368
Generated prefetch: 1318464
Generated prefetch: 1326656
Generated prefetch: 1322560
Generated prefetch: 1314432
Generated prefetch: 1318528
Generated prefetch: 1322624
Address 244 found in the RR table
New best score is 8
Generated prefetch: 1326720
Generated prefetch: 1318592
Address 51 found in the RR table
Generated prefetch: 1314496
Generated prefetch: 1322688
Generated prefetch: 1326784
Generated prefetch: 1314560
Address 111 found in the RR table
Generated prefetch: 1318656
Generated prefetch: 1326848
Generated prefetch: 1322752
Generated prefetch: 1318720
Generated prefetch: 1314624
Generated prefetch: 1322816
Generated prefetch: 1326912
Generated prefetch: 1314688
Generated prefetch: 1318784
Generated prefetch: 1326976
Address 155 found in the RR table
Generated prefetch: 1322880
Generated prefetch: 1314752
Generated prefetch: 1318848
Address 143 found in the RR table
Generated prefetch: 1322944
Generated prefetch: 1327040
Address 75 found in the RR table
Prefetch not issued - Page crossed
Address 7 found in the RR table
Prefetch not issued - Page crossed
Prefetch not issued - Page crossed
Prefetch not issued - Page crossed
Address 60 found in the RR table
Prefetch not issued - Page crossed
Address 123 found in the RR table
New best score is 9
Prefetch not issued - Page crossed
Prefetch not issued - Page crossed
Prefetch not issued - Page crossed
Prefetch not issued - Page crossed
Address 55 found in the RR table
Prefetch not issued - Page crossed
Prefetch not issued - Page crossed
Prefetch not issued - Page crossed
Generated prefetch: 1327296
Generated prefetch: 1331392
Generated prefetch: 1335488
Generated prefetch: 1339584
Generated prefetch: 1327360
Generated prefetch: 1331456
Generated prefetch: 1339648
Generated prefetch: 1335552
Generated prefetch: 1331520
Generated prefetch: 1327424
Generated prefetch: 1339712
Generated prefetch: 1335616
Generated prefetch: 1327488
Generated prefetch: 1331584
Generated prefetch: 1335680
Generated prefetch: 1339776
Generated prefetch: 1331648
Generated prefetch: 1327552
Generated prefetch: 1339840
Address 385 found in the RR table
New best score is 10
Generated prefetch: 1335744
Generated prefetch: 1327616
Generated prefetch: 1331712
Generated prefetch: 1335808
Generated prefetch: 1339904
Generated prefetch: 1327680
Generated prefetch: 1331776
Generated prefetch: 1339968
Generated prefetch: 1335872
Generated prefetch: 1331840
Generated prefetch: 1327744
Generated prefetch: 1340032
Generated prefetch: 1335936
Address 239 found in the RR table
Generated prefetch: 1327808
Generated prefetch: 1331904
Generated prefetch: 1336000
Generated prefetch: 1340096
Generated prefetch: 1331968
Generated prefetch: 1327872
Generated prefetch: 1340160
Generated prefetch: 1336064
Generated prefetch: 1327936
Generated prefetch: 1332032
Generated prefetch: 1336128
Generated prefetch: 1340224
Address 265 found in the RR table
Generated prefetch: 1328000
Generated prefetch: 1332096
Address 455 found in the RR table
Generated prefetch: 1340288
Generated prefetch: 1336192
Generated prefetch: 1332160
Generated prefetch: 1328064
Generated prefetch: 1340352
Address 386 found in the RR table
Generated prefetch: 1336256
Generated prefetch: 1328128
Generated prefetch: 1332224
Generated prefetch: 1336320
Generated prefetch: 1340416
Generated prefetch: 1332288
Generated prefetch: 1328192
Generated prefetch: 1340480
Generated prefetch: 1336384
Generated prefetch: 1328256
Generated prefetch: 1332352
Generated prefetch: 1336448
Generated prefetch: 1340544
Address 227 found in the RR table
Generated prefetch: 1328320
Generated prefetch: 1332416
Generated prefetch: 1340608
Generated prefetch: 1336512
Generated prefetch: 1332480
Generated prefetch: 1328384
Generated prefetch: 1340672
Address 398 found in the RR table
New best score is 11
Generated prefetch: 1336576
Generated prefetch: 1328448
Generated prefetch: 1332544
Generated prefetch: 1336640
Generated prefetch: 1340736
Generated prefetch: 1332608
Generated prefetch: 1328512
Address 455 found in the RR table
Generated prefetch: 1340800
Generated prefetch: 1336704
Generated prefetch: 1328576
Address 322 found in the RR table
Generated prefetch: 1332672
Generated prefetch: 1336768
Generated prefetch: 1340864
Generated prefetch: 1328640
Generated prefetch: 1332736
Generated prefetch: 1340928
Generated prefetch: 1336832
Generated prefetch: 1332800
Generated prefetch: 1328704
Generated prefetch: 1340992
Generated prefetch: 1336896
Generated prefetch: 1328768
Generated prefetch: 1332864
Generated prefetch: 1336960
Generated prefetch: 1341056
Address 342 found in the RR table
Generated prefetch: 1332928
Address 277 found in the RR table
New best score is 12
Generated prefetch: 1328832
Generated prefetch: 1341120
Address 403 found in the RR table
Generated prefetch: 1337024
Address 275 found in the RR table
Generated prefetch: 1328896
Generated prefetch: 1332992
Generated prefetch: 1337088
Address 463 found in the RR table
Generated prefetch: 1341184
Generated prefetch: 1328960
Address 331 found in the RR table
Generated prefetch: 1333056
Generated prefetch: 1341248
Generated prefetch: 1337152
Address 327 found in the RR table
Generated prefetch: 1333120
Generated prefetch: 1329024
Address 450 found in the RR table
Generated prefetch: 1341312
Generated prefetch: 1337216
Generated prefetch: 1329088
Generated prefetch: 1333184
Generated prefetch: 1337280
Generated prefetch: 1341376
Generated prefetch: 1333248
Generated prefetch: 1329152
Generated prefetch: 1341440
Generated prefetch: 1337344
Generated prefetch: 1329216
Generated prefetch: 1333312
Generated prefetch: 1337408
Address 475 found in the RR table
New best score is 13
Generated prefetch: 1341504
Address 283 found in the RR table
Generated prefetch: 1329280
Generated prefetch: 1333376
Generated prefetch: 1341568
Address 407 found in the RR table
Generated prefetch: 1337472
Address 343 found in the RR table
Generated prefetch: 1333440
Generated prefetch: 1329344
Generated prefetch: 1341632
Generated prefetch: 1337536
Generated prefetch: 1329408
Address 335 found in the RR table
Generated prefetch: 1333504
Generated prefetch: 1337600
Generated prefetch: 1341696
Generated prefetch: 1333568
Address 263 found in the RR table
Generated prefetch: 1329472
Generated prefetch: 1341760
Address 386 found in the RR table
Generated prefetch: 1337664
Address 255 found in the RR table
Generated prefetch: 1329536
Generated prefetch: 1333632
Generated prefetch: 1337728
Generated prefetch: 1341824
Generated prefetch: 1329600
Generated prefetch: 1333696
Generated prefetch: 1341888
Generated prefetch: 1337792
Address 355 found in the RR table
Generated prefetch: 1333760
Generated prefetch: 1329664
Generated prefetch: 1341952
Generated prefetch: 1337856
Generated prefetch: 1329728
Generated prefetch: 1333824
Generated prefetch: 1337920
Generated prefetch: 1342016
Address 347 found in the RR table
Generated prefetch: 1333888
Generated prefetch: 1329792
Address 471 found in the RR table
Generated prefetch: 1342080
Generated prefetch: 1337984
Generated prefetch: 1329856
Generated prefetch: 1333952
Address 399 found in the RR table
Generated prefetch: 1338048
Generated prefetch: 1342144
Address 267 found in the RR table
Generated prefetch: 1329920
Generated prefetch: 1334016
Generated prefetch: 1342208
Generated prefetch: 1338112
Generated prefetch: 1334080
Generated prefetch: 1329984
Generated prefetch: 1342272
Generated prefetch: 1338176
Generated prefetch: 1330048
Generated prefetch: 1334144
Generated prefetch: 1338240
Address 488 found in the RR table
New best score is 14
Generated prefetch: 1342336
Generated prefetch: 1334208
Address 295 found in the RR table
Generated prefetch: 1330112
Generated prefetch: 1342400
Generated prefetch: 1338304
Generated prefetch: 1330176
Address 355 found in the RR table
Generated prefetch: 1334272
Generated prefetch: 1338368
Generated prefetch: 1342464
Generated prefetch: 1330240
Generated prefetch: 1334336
Generated prefetch: 1342528
Generated prefetch: 1338432
Generated prefetch: 1334400
Generated prefetch: 1330304
Generated prefetch: 1342592
Address 399 found in the RR table
Generated prefetch: 1338496
Generated prefetch: 1330368
Generated prefetch: 1334464
Generated prefetch: 1338560
Generated prefetch: 1342656
Generated prefetch: 1334528
Address 251 found in the RR table
Generated prefetch: 1330432
Generated prefetch: 1342720
Generated prefetch: 1338624
Address 304 found in the RR table
Generated prefetch: 1330496
Address 367 found in the RR table
New best score is 15
Generated prefetch: 1334592
Generated prefetch: 1338688
Generated prefetch: 1342784
Generated prefetch: 1330560
Address 363 found in the RR table
Generated prefetch: 1334656
Generated prefetch: 1342848
Generated prefetch: 1338752
Generated prefetch: 1334720
Generated prefetch: 1330624
Generated prefetch: 1342912
Generated prefetch: 1338816
Generated prefetch: 1330688
Generated prefetch: 1334784
Generated prefetch: 1338880
Generated prefetch: 1342976
Generated prefetch: 1334848
Generated prefetch: 1330752
Generated prefetch: 1343040
Generated prefetch: 1338944
Generated prefetch: 1330816
Address 327 found in the RR table
Generated prefetch: 1334912
Generated prefetch: 1339008
Generated prefetch: 1343104
Generated prefetch: 1330880
Generated prefetch: 1334976
Generated prefetch: 1343168
Address 437 found in the RR table
New best score is 16
Generated prefetch: 1339072
Generated prefetch: 1335040
Generated prefetch: 1330944
Address 499 found in the RR table
Generated prefetch: 1343232
Generated prefetch: 1339136
Generated prefetch: 1331008
Generated prefetch: 1335104
Generated prefetch: 1339200
Address 491 found in the RR table
Generated prefetch: 1343296
Address 363 found in the RR table
Generated prefetch: 1335168
Generated prefetch: 1331072
Address 487 found in the RR table
Generated prefetch: 1343360
Address 419 found in the RR table
Generated prefetch: 1339264
Address 291 found in the RR table
Generated prefetch: 1331136
Generated prefetch: 1335232
Generated prefetch: 1339328
Generated prefetch: 1343424
Prefetch not issued - Page crossed
Prefetch not issued - Page crossed
Prefetch not issued - Page crossed
Prefetch not issued - Page crossed
Prefetch not issued - Page crossed
Prefetch not issued - Page crossed
Address 450 found in the RR table
Prefetch not issued - Page crossed
Prefetch not issued - Page crossed
Address 317 found in the RR table
Prefetch not issued - Page crossed
Prefetch not issued - Page crossed
Address 443 found in the RR table
Prefetch not issued - Page crossed
Prefetch not issued - Page crossed
Generated prefetch: 1343680
Generated prefetch: 1347776
Generated prefetch: 1351872
Generated prefetch: 1355968
Generated prefetch: 1347840
Generated prefetch: 1343744
Generated prefetch: 1356032
Generated prefetch: 1351936
Generated prefetch: 1347904
Generated prefetch: 1343808
Generated prefetch: 1352000
Generated prefetch: 1356096
Generated prefetch: 1343872
Generated prefetch: 1347968
Generated prefetch: 1352064
Generated prefetch: 1356160
Generated prefetch: 1348032
Generated prefetch: 1343936
Generated prefetch: 1356224
Generated prefetch: 1352128
Generated prefetch: 1344000
Address 580 found in the RR table
Generated prefetch: 1348096
Generated prefetch: 1352192
Address 706 found in the RR table
New best score is 17
Generated prefetch: 1356288
Address 578 found in the RR table
Generated prefetch: 1348160
Generated prefetch: 1344064
Generated prefetch: 1356352
Generated prefetch: 1352256
Generated prefetch: 1348224
Generated prefetch: 1344128
Generated prefetch: 1352320
Generated prefetch: 1356416
Generated prefetch: 1344192
Generated prefetch: 1348288
Generated prefetch: 1352384
Generated prefetch: 1356480
Generated prefetch: 1348352
Generated prefetch: 1344256
Generated prefetch: 1356544
Generated prefetch: 1352448
Generated prefetch: 1344320
Generated prefetch: 1348416
Generated prefetch: 1352512
Generated prefetch: 1356608
Generated prefetch: 1348480
Generated prefetch: 1344384
Generated prefetch: 1356672
Generated prefetch: 1352576
Address 586 found in the RR table
Generated prefetch: 1348544
Address 521 found in the RR table
New best score is 18
Generated prefetch: 1344448
Generated prefetch: 1352640
Address 711 found in the RR table
Generated prefetch: 1356736
Address 519 found in the RR table
Generated prefetch: 1344512
Generated prefetch: 1348608
Generated prefetch: 1352704
Generated prefetch: 1356800
Address 578 found in the RR table
Generated prefetch: 1348672
Address 511 found in the RR table
Generated prefetch: 1344576
Generated prefetch: 1356864
Generated prefetch: 1352768
Address 507 found in the RR table
Generated prefetch: 1344640
Generated prefetch: 1348736
Generated prefetch: 1352832
Generated prefetch: 1356928
Generated prefetch: 1348800
Generated prefetch: 1344704
Generated prefetch: 1356992
Generated prefetch: 1352896
Generated prefetch: 1348864
Generated prefetch: 1344768
Generated prefetch: 1352960
Generated prefetch: 1357056
Generated prefetch: 1344832
Generated prefetch: 1348928
Generated prefetch: 1353024
Address 719 found in the RR table
New best score is 19
Generated prefetch: 1357120
Address 591 found in the RR table
Generated prefetch: 1348992
Generated prefetch: 1344896
Generated prefetch: 1357184
Address 651 found in the RR table
Generated prefetch: 1353088
Address 523 found in the RR table
Generated prefetch: 1344960
Generated prefetch: 1349056
Generated prefetch: 1353152
Generated prefetch: 1357248
Generated prefetch: 1349120
Generated prefetch: 1345024
Generated prefetch: 1357312
Generated prefetch: 1353216
Generated prefetch: 1349184
Address 507 found in the RR table
Generated prefetch: 1345088
Generated prefetch: 1353280
Generated prefetch: 1357376
Address 499 found in the RR table
Generated prefetch: 1345152
Generated prefetch: 1349248
Generated prefetch: 1353344
Generated prefetch: 1357440
Generated prefetch: 1349312
Generated prefetch: 1345216
Generated prefetch: 1357504
Generated prefetch: 1353408
[...]
Generated prefetch: 4606848
Address 2375 found in the RR table
Generated prefetch: 4610944
Generated prefetch: 4598720
Generated prefetch: 4602816
Generated prefetch: 4611008
Generated prefetch: 4606912
Address 2167 found in the RR table
Generated prefetch: 4598784
Generated prefetch: 4602880
Generated prefetch: 4606976
Generated prefetch: 4611072
Address 2283 found in the RR table
New best score is 7
Generated prefetch: 4602944
Address 2218 found in the RR table
Generated prefetch: 4598848
Generated prefetch: 4607040
Generated prefetch: 4611136
Address 2215 found in the RR table
Generated prefetch: 4598912
Address 2278 found in the RR table
Generated prefetch: 4603008
Address 2405 found in the RR table
Generated prefetch: 4611200
Address 2339 found in the RR table
Generated prefetch: 4607104
Generated prefetch: 4603072
Generated prefetch: 4598976
Generated prefetch: 4607168
Address 2396 found in the RR table
Generated prefetch: 4611264
Generated prefetch: 4599040
Generated prefetch: 4603136
Generated prefetch: 4611328
Generated prefetch: 4607232
Address 2194 found in the RR table
Generated prefetch: 4599104
Generated prefetch: 4603200
Generated prefetch: 4607296
Address 2373 found in the RR table
Generated prefetch: 4611392
Generated prefetch: 4603264
Generated prefetch: 4599168
Generated prefetch: 4607360
Generated prefetch: 4611456
Generated prefetch: 4599232
Address 2290 found in the RR table
Generated prefetch: 4603328
Address 2417 found in the RR table
New best score is 8
Generated prefetch: 4611520
Generated prefetch: 4607424
Generated prefetch: 4603392
Address 2223 found in the RR table
Generated prefetch: 4599296
Generated prefetch: 4607488
Generated prefetch: 4611584
Generated prefetch: 4599360
Generated prefetch: 4603456
Generated prefetch: 4611648
Generated prefetch: 4607552
Generated prefetch: 4599424
Generated prefetch: 4603520
Generated prefetch: 4607616
Generated prefetch: 4611712
Address 2269 found in the RR table
Generated prefetch: 4603584
Generated prefetch: 4599488
Generated prefetch: 4607680
Address 2388 found in the RR table
Generated prefetch: 4611776
Generated prefetch: 4599552
Generated prefetch: 4603648
Generated prefetch: 4611840
Address 2311 found in the RR table
Generated prefetch: 4607744
Generated prefetch: 4603712
Generated prefetch: 4599616
Generated prefetch: 4607808
Address 2424 found in the RR table
Generated prefetch: 4611904
Address 2232 found in the RR table
New best score is 9
Generated prefetch: 4599680
Address 2295 found in the RR table
Generated prefetch: 4603776
Generated prefetch: 4611968
Address 2357 found in the RR table
Generated prefetch: 4607872
Generated prefetch: 4599744
Address 2291 found in the RR table
Generated prefetch: 4603840
Generated prefetch: 4607936
Generated prefetch: 4612032
Prefetch not issued - Page crossed
Prefetch not issued - Page crossed
Prefetch not issued - Page crossed
Prefetch not issued - Page crossed
Prefetch not issued - Page crossed
Address 2277 found in the RR table
Prefetch not issued - Page crossed
Prefetch not issued - Page crossed
Prefetch not issued - Page crossed
Prefetch not issued - Page crossed
Address 2203 found in the RR table
Prefetch not issued - Page crossed
Prefetch not issued - Page crossed
Address 2386 found in the RR table
Prefetch not issued - Page crossed
Generated prefetch: 4612288
Generated prefetch: 4616384
Generated prefetch: 4620480
Generated prefetch: 4624576
Generated prefetch: 4612352
Generated prefetch: 4616448
Generated prefetch: 4624640
Generated prefetch: 4620544
Generated prefetch: 4616512
Generated prefetch: 4612416
Generated prefetch: 4624704
Generated prefetch: 4620608
Generated prefetch: 4612480
Generated prefetch: 4616576
Generated prefetch: 4620672
Generated prefetch: 4624768
Generated prefetch: 4616640
Generated prefetch: 4612544
Generated prefetch: 4624832
Generated prefetch: 4620736
Generated prefetch: 4612608
Generated prefetch: 4616704
Generated prefetch: 4620800
Generated prefetch: 4624896
Generated prefetch: 4612672
Generated prefetch: 4616768
Generated prefetch: 4624960
Generated prefetch: 4620864
Generated prefetch: 4616832
Generated prefetch: 4612736
Generated prefetch: 4625024
Generated prefetch: 4620928
Address 2437 found in the RR table
New best score is 10
Generated prefetch: 4612800
Generated prefetch: 4616896
Generated prefetch: 4620992
Address 2626 found in the RR table
Generated prefetch: 4625088
Address 2497 found in the RR table
Generated prefetch: 4616960
Generated prefetch: 4612864
Generated prefetch: 4625152
Generated prefetch: 4621056
Generated prefetch: 4612928
Generated prefetch: 4617024
Generated prefetch: 4621120
Generated prefetch: 4625216
Generated prefetch: 4612992
Generated prefetch: 4617088
Generated prefetch: 4625280
Generated prefetch: 4621184
Generated prefetch: 4617152
Generated prefetch: 4613056
Generated prefetch: 4625344
Generated prefetch: 4621248
Address 2397 found in the RR table
Generated prefetch: 4613120
Generated prefetch: 4617216
Generated prefetch: 4621312
Generated prefetch: 4625408
Generated prefetch: 4617280
Generated prefetch: 4613184
Address 2635 found in the RR table
New best score is 11
Generated prefetch: 4625472
Generated prefetch: 4621376
Generated prefetch: 4613248
Generated prefetch: 4617344
Generated prefetch: 4621440
Generated prefetch: 4625536
Address 2438 found in the RR table
Generated prefetch: 4613312
Generated prefetch: 4617408
Generated prefetch: 4625600
Generated prefetch: 4621504
Generated prefetch: 4617472
Address 2429 found in the RR table
Generated prefetch: 4613376
Generated prefetch: 4625664
Generated prefetch: 4621568
Address 2423 found in the RR table
Generated prefetch: 4613440
Generated prefetch: 4617536
Generated prefetch: 4621632
Generated prefetch: 4625728
Generated prefetch: 4617600
Generated prefetch: 4613504
Generated prefetch: 4625792
Generated prefetch: 4621696
Generated prefetch: 4613568
Generated prefetch: 4617664
Generated prefetch: 4621760
Generated prefetch: 4625856
Address 2450 found in the RR table
New best score is 12
Generated prefetch: 4613632
Address 2513 found in the RR table
Generated prefetch: 4617728
Generated prefetch: 4625920
Address 2575 found in the RR table
Generated prefetch: 4621824
Generated prefetch: 4617792
Address 2445 found in the RR table
Generated prefetch: 4613696
Generated prefetch: 4625984
Generated prefetch: 4621888
Address 2440 found in the RR table
Generated prefetch: 4613760
Generated prefetch: 4617856
Generated prefetch: 4621952
Generated prefetch: 4626048
Generated prefetch: 4617920
Address 2431 found in the RR table
Generated prefetch: 4613824
Generated prefetch: 4626112
Generated prefetch: 4622016
Generated prefetch: 4613888
Generated prefetch: 4617984
Generated prefetch: 4622080
Generated prefetch: 4626176
Generated prefetch: 4613952
Generated prefetch: 4618048
Generated prefetch: 4626240
Generated prefetch: 4622144
Generated prefetch: 4618112
Address 2457 found in the RR table
Generated prefetch: 4614016
Address 2648 found in the RR table
New best score is 13
Generated prefetch: 4626304
Generated prefetch: 4622208
Generated prefetch: 4614080
Generated prefetch: 4618176
Generated prefetch: 4622272
Generated prefetch: 4626368
Generated prefetch: 4618240
Address 2449 found in the RR table
Generated prefetch: 4614144
Generated prefetch: 4626432
Address 2573 found in the RR table
Generated prefetch: 4622336
Generated prefetch: 4614208
Generated prefetch: 4618304
Address 2566 found in the RR table
Generated prefetch: 4622400
Generated prefetch: 4626496
Generated prefetch: 4614272
Generated prefetch: 4618368
Generated prefetch: 4626560
Generated prefetch: 4622464
Generated prefetch: 4618432
Generated prefetch: 4614336
Generated prefetch: 4626624
Generated prefetch: 4622528
Generated prefetch: 4614400
Generated prefetch: 4618496
Generated prefetch: 4622592
Generated prefetch: 4626688
Address 2527 found in the RR table
New best score is 14
Generated prefetch: 4618560
Generated prefetch: 4614464
Address 2653 found in the RR table
Generated prefetch: 4626752
Generated prefetch: 4622656
Generated prefetch: 4614528
Generated prefetch: 4618624
Address 2585 found in the RR table
Generated prefetch: 4622720
Address 2647 found in the RR table
Generated prefetch: 4626816
Generated prefetch: 4614592
Generated prefetch: 4618688
Generated prefetch: 4626880
Generated prefetch: 4622784
Address 2509 found in the RR table
Generated prefetch: 4618752
Generated prefetch: 4614656
Generated prefetch: 4626944
Generated prefetch: 4622848
Address 2438 found in the RR table
Generated prefetch: 4614720
Generated prefetch: 4618816
Generated prefetch: 4622912
Generated prefetch: 4627008
Generated prefetch: 4618880
Generated prefetch: 4614784
Generated prefetch: 4627072
Generated prefetch: 4622976
Generated prefetch: 4614848
Generated prefetch: 4618944
Address 2597 found in the RR table
New best score is 15
Generated prefetch: 4623040
Generated prefetch: 4627136
Generated prefetch: 4614912
Address 2531 found in the RR table
Generated prefetch: 4619008
Address 2657 found in the RR table
Generated prefetch: 4627200
Generated prefetch: 4623104
Generated prefetch: 4619072
Generated prefetch: 4614976
Generated prefetch: 4627264
Generated prefetch: 4623168
Address 2457 found in the RR table
Generated prefetch: 4615040
Generated prefetch: 4619136
Generated prefetch: 4623232
Generated prefetch: 4627328
Generated prefetch: 4619200
Generated prefetch: 4615104
Generated prefetch: 4627392
Generated prefetch: 4623296
Generated prefetch: 4615168
Generated prefetch: 4619264
Generated prefetch: 4623360
Generated prefetch: 4627456
Generated prefetch: 4615232
Generated prefetch: 4619328
Generated prefetch: 4627520
Generated prefetch: 4623424
Address 2540 found in the RR table
New best score is 16
Generated prefetch: 4619392
Address 2475 found in the RR table
Generated prefetch: 4615296
Generated prefetch: 4627584
Address 2601 found in the RR table
Generated prefetch: 4623488
Generated prefetch: 4615360
Generated prefetch: 4619456
Generated prefetch: 4623552
Generated prefetch: 4627648
Generated prefetch: 4619520
Generated prefetch: 4615424
Address 2655 found in the RR table
Generated prefetch: 4627712
Address 2589 found in the RR table
Generated prefetch: 4623616
Generated prefetch: 4615488
Generated prefetch: 4619584
Generated prefetch: 4623680
Generated prefetch: 4627776
Generated prefetch: 4615552
Address 2511 found in the RR table
Generated prefetch: 4619648
Address 2635 found in the RR table
Generated prefetch: 4627840
Address 2566 found in the RR table
Generated prefetch: 4623744
Generated prefetch: 4619712
Generated prefetch: 4615616
Generated prefetch: 4627904
Generated prefetch: 4623808
Generated prefetch: 4615680
Generated prefetch: 4619776
Generated prefetch: 4623872
Generated prefetch: 4627968
Generated prefetch: 4619840
Address 2480 found in the RR table
Generated prefetch: 4615744
Address 2670 found in the RR table
Generated prefetch: 4628032
Address 2605 found in the RR table
Generated prefetch: 4623936
Address 2477 found in the RR table
Generated prefetch: 4615808
Address 2539 found in the RR table
Generated prefetch: 4619904
Generated prefetch: 4624000
Generated prefetch: 4628096
Generated prefetch: 4615872
Generated prefetch: 4619968
Generated prefetch: 4628160
Address 2591 found in the RR table
Generated prefetch: 4624064
Generated prefetch: 4620032
Generated prefetch: 4615936
Address 2649 found in the RR table
Generated prefetch: 4628224
Generated prefetch: 4624128
Generated prefetch: 4616000
Address 2509 found in the RR table
Generated prefetch: 4620096
Generated prefetch: 4624192
Generated prefetch: 4628288
Generated prefetch: 4620160
Generated prefetch: 4616064
Generated prefetch: 4628352
Generated prefetch: 4624256
Address 2489 found in the RR table
New best score is 17
Generated prefetch: 4616128
Generated prefetch: 4620224
Generated prefetch: 4624320
Generated prefetch: 4628416
Prefetch not issued - Page crossed
Prefetch not issued - Page crossed
Prefetch not issued - Page crossed
Prefetch not issued - Page crossed
Address 2543 found in the RR table
Prefetch not issued - Page crossed
Address 2478 found in the RR table
Prefetch not issued - Page crossed
Prefetch not issued - Page crossed
Prefetch not issued - Page crossed
Prefetch not issued - Page crossed
Prefetch not issued - Page crossed
Prefetch not issued - Page crossed
Prefetch not issued - Page crossed
Generated prefetch: 4628672
Generated prefetch: 4632768
Generated prefetch: 4636864
Generated prefetch: 4640960
Generated prefetch: 4632832
Address 2639 found in the RR table
Generated prefetch: 4628736
Generated prefetch: 4641024
Generated prefetch: 4636928
Generated prefetch: 4632896
Generated prefetch: 4628800
Generated prefetch: 4636992
Generated prefetch: 4641088
Generated prefetch: 4628864
Generated prefetch: 4632960
Generated prefetch: 4637056
Generated prefetch: 4641152
Generated prefetch: 4633024
Generated prefetch: 4628928
Generated prefetch: 4641216
Generated prefetch: 4637120
Generated prefetch: 4628992
Generated prefetch: 4633088
Generated prefetch: 4637184
Generated prefetch: 4641280
Generated prefetch: 4633152
Generated prefetch: 4629056
Generated prefetch: 4641344
Generated prefetch: 4637248
Generated prefetch: 4633216
Generated prefetch: 4629120
Generated prefetch: 4637312
Generated prefetch: 4641408
Generated prefetch: 4629184
Generated prefetch: 4633280
Generated prefetch: 4637376
Generated prefetch: 4641472
Generated prefetch: 4633344
Generated prefetch: 4629248
Generated prefetch: 4641536
Generated prefetch: 4637440
Address 2690 found in the RR table
Generated prefetch: 4629312
Generated prefetch: 4633408
Generated prefetch: 4637504
Generated prefetch: 4641600
Generated prefetch: 4633472
Address 2683 found in the RR table
Generated prefetch: 4629376
Generated prefetch: 4641664
Generated prefetch: 4637568
Generated prefetch: 4633536
Generated prefetch: 4629440
Generated prefetch: 4637632
Generated prefetch: 4641728
Address 2669 found in the RR table
Generated prefetch: 4629504
Generated prefetch: 4633600
Generated prefetch: 4637696
Generated prefetch: 4641792
Generated prefetch: 4633664
Generated prefetch: 4629568
Generated prefetch: 4641856
Generated prefetch: 4637760
Generated prefetch: 4629632
Generated prefetch: 4633728
Generated prefetch: 4637824
Address 2891 found in the RR table
Generated prefetch: 4641920
Generated prefetch: 4633792
Address 2698 found in the RR table
Generated prefetch: 4629696
Generated prefetch: 4641984
Address 2823 found in the RR table
Generated prefetch: 4637888
Address 2759 found in the RR table
Generated prefetch: 4633856
Generated prefetch: 4629760
Address 2818 found in the RR table
Generated prefetch: 4637952
Generated prefetch: 4642048
Generated prefetch: 4629824
Generated prefetch: 4633920
Generated prefetch: 4638016
Generated prefetch: 4642112
Generated prefetch: 4633984
Generated prefetch: 4629888
Generated prefetch: 4642176
Generated prefetch: 4638080
Simulation finished CPU 0 instructions: 2000000 cycles: 4108665 cumulative IPC: 0.4868 (Simulation time: 00 hr 00 min 17 sec)
Simulation complete CPU 0 instructions: 2000000 cycles: 4108665 cumulative IPC: 0.4868 (Simulation time: 00 hr 00 min 17 sec)

ChampSim completed all CPUs

=== Simulation ===
CPU 0 runs /home/jalexandrou/Documents/Imperial/4Yr/ChampSim/SPEC_quick/603.bwaves_s-891B.champsimtrace.xz
Region of Interest Statistics

CPU 0 cumulative IPC: 0.4868 instructions: 2000000 cycles: 4108665
CPU 0 Branch Prediction Accuracy: 71.37% MPKI: 21.8 Average ROB Occupancy at Mispredict: 277
Branch type MPKI
BRANCH_DIRECT_JUMP: 0
BRANCH_INDIRECT: 0
BRANCH_CONDITIONAL: 21.8
BRANCH_DIRECT_CALL: 0
BRANCH_INDIRECT_CALL: 0
BRANCH_RETURN: 0

LLC TOTAL        ACCESS:      77336 HIT:      23030 MISS:      54306
LLC LOAD         ACCESS:       3557 HIT:          0 MISS:       3557
LLC RFO          ACCESS:          0 HIT:          0 MISS:          0
LLC PREFETCH     ACCESS:      50718 HIT:          0 MISS:      50718
LLC WRITE        ACCESS:      23030 HIT:      23030 MISS:          0
LLC TRANSLATION  ACCESS:         31 HIT:          0 MISS:         31
LLC PREFETCH REQUESTED:          0 ISSUED:          0 USEFUL:          0 USELESS:          0
LLC AVERAGE MISS LATENCY: 1267 cycles
cpu0_DTLB TOTAL        ACCESS:     421148 HIT:     417969 MISS:       3179
cpu0_DTLB LOAD         ACCESS:     421148 HIT:     417969 MISS:       3179
cpu0_DTLB RFO          ACCESS:          0 HIT:          0 MISS:          0
cpu0_DTLB PREFETCH     ACCESS:          0 HIT:          0 MISS:          0
cpu0_DTLB WRITE        ACCESS:          0 HIT:          0 MISS:          0
cpu0_DTLB TRANSLATION  ACCESS:          0 HIT:          0 MISS:          0
cpu0_DTLB PREFETCH REQUESTED:          0 ISSUED:          0 USEFUL:          0 USELESS:          0
cpu0_DTLB AVERAGE MISS LATENCY: 31.96 cycles
cpu0_ITLB TOTAL        ACCESS:         17 HIT:         14 MISS:          3
cpu0_ITLB LOAD         ACCESS:         17 HIT:         14 MISS:          3
cpu0_ITLB RFO          ACCESS:          0 HIT:          0 MISS:          0
cpu0_ITLB PREFETCH     ACCESS:          0 HIT:          0 MISS:          0
cpu0_ITLB WRITE        ACCESS:          0 HIT:          0 MISS:          0
cpu0_ITLB TRANSLATION  ACCESS:          0 HIT:          0 MISS:          0
cpu0_ITLB PREFETCH REQUESTED:          0 ISSUED:          0 USEFUL:          0 USELESS:          0
cpu0_ITLB AVERAGE MISS LATENCY: 537 cycles
cpu0_L1D TOTAL        ACCESS:     456832 HIT:     225802 MISS:     231030
cpu0_L1D LOAD         ACCESS:     324599 HIT:      93603 MISS:     230996
cpu0_L1D RFO          ACCESS:          0 HIT:          0 MISS:          0
cpu0_L1D PREFETCH     ACCESS:          0 HIT:          0 MISS:          0
cpu0_L1D WRITE        ACCESS:     131357 HIT:     131357 MISS:          0
cpu0_L1D TRANSLATION  ACCESS:        876 HIT:        842 MISS:         34
cpu0_L1D PREFETCH REQUESTED:          0 ISSUED:          0 USEFUL:          0 USELESS:          0
cpu0_L1D AVERAGE MISS LATENCY: 90.31 cycles
cpu0_L1I TOTAL        ACCESS:         20 HIT:          7 MISS:         13
cpu0_L1I LOAD         ACCESS:         20 HIT:          7 MISS:         13
cpu0_L1I RFO          ACCESS:          0 HIT:          0 MISS:          0
cpu0_L1I PREFETCH     ACCESS:          0 HIT:          0 MISS:          0
cpu0_L1I WRITE        ACCESS:          0 HIT:          0 MISS:          0
cpu0_L1I TRANSLATION  ACCESS:          0 HIT:          0 MISS:          0
cpu0_L1I PREFETCH REQUESTED:          0 ISSUED:          0 USEFUL:          0 USELESS:          0
cpu0_L1I AVERAGE MISS LATENCY: 261.5 cycles
cpu0_L2C TOTAL        ACCESS:     131745 HIT:      32685 MISS:      99060
cpu0_L2C LOAD         ACCESS:      54256 HIT:       5945 MISS:      48311
cpu0_L2C RFO          ACCESS:          0 HIT:          0 MISS:          0
cpu0_L2C PREFETCH     ACCESS:      50718 HIT:          0 MISS:      50718
cpu0_L2C WRITE        ACCESS:      26740 HIT:      26740 MISS:          0
cpu0_L2C TRANSLATION  ACCESS:         31 HIT:          0 MISS:         31
cpu0_L2C PREFETCH REQUESTED:      50718 ISSUED:      50718 USEFUL:      50699 USELESS:          7
cpu0_L2C AVERAGE MISS LATENCY: 431.6 cycles
cpu0_STLB TOTAL        ACCESS:        856 HIT:          0 MISS:        856
cpu0_STLB LOAD         ACCESS:        856 HIT:          0 MISS:        856
cpu0_STLB RFO          ACCESS:          0 HIT:          0 MISS:          0
cpu0_STLB PREFETCH     ACCESS:          0 HIT:          0 MISS:          0
cpu0_STLB WRITE        ACCESS:          0 HIT:          0 MISS:          0
cpu0_STLB TRANSLATION  ACCESS:          0 HIT:          0 MISS:          0
cpu0_STLB PREFETCH REQUESTED:          0 ISSUED:          0 USEFUL:          0 USELESS:          0
cpu0_STLB AVERAGE MISS LATENCY: 221.8 cycles

DRAM Statistics

Channel 0 RQ ROW_BUFFER_HIT:      44954
  ROW_BUFFER_MISS:       9352
 AVG DBUS CONGESTED CYCLE: 3.988
WQ ROW_BUFFER_HIT: Channel 0 
  ROW_BUFFER_MISS:       3993
  FULL:       6662
